<routes>
        <vType id="typeWE" accel="0.8" decel="4.5" sigma="0.5" length="5" minGap="2.5" maxSpeed="16.67" guiShape="passenger"/>
	<vType id="typeNS" accel="0.8" decel="4.5" sigma="0.5" length="5" minGap="2.5" maxSpeed="16.67" guiShape="passenger"/>
	<route id="left" edges="366845096#0 366845096#1 366845096#20 366845096#22 366845096#3 366845096#4 366845096#5"/>
	<route id="left_up" edges="366845096#0 366845096#1 366845096#20 366845096#22 -157076458#1 -157076458#0"/>
	<route id="left_down" edges="366845096#0 366845096#1 366845096#20 366845096#22 -26446721#2 -26446721#1 -26446721#0"/>
	<route id="right" edges="-366845096#5 -366845096#4 -366845096#30 -366845096#32 -366845096#2 -366845096#1 -366845096#0 "/>
	<route id="right_up" edges="-366845096#5 -366845096#4 -366845096#30 -366845096#32 -157076458#1 -157076458#0 "/>
	<route id="right_down" edges="-366845096#5 -366845096#4 -366845096#30 -366845096#32 -26446721#2 -26446721#1 -26446721#0"/>
	<route id="up" edges="157076458#0 157076458#1 -26446721#2 -26446721#1 -26446721#0"/>
	<route id="up_left" edges="157076458#0 157076458#1 -366845096#2 -366845096#1 -366845096#0"/>
	<route id="down" edges="26446721#0 26446721#1 26446721#2 -157076458#1 -157076458#0"/>
	<route id="down_right" edges="26446721#0 26446721#1 26446721#2 366845096#3 366845096#4 366845096#5"/>
    <vehicle id="right_0" type="typeWE" route="left_down" depart="0" />
    <vehicle id="down_1" type="typeWE" route="up_left" depart="1" color="1,0,0"/>
    <vehicle id="left_2" type="typeWE" route="left_up" depart="2" />
    <vehicle id="down_3" type="typeWE" route="up" depart="3" color="1,0,0"/>
    <vehicle id="down_4" type="typeWE" route="up" depart="23" color="1,0,0"/>
    <vehicle id="up_5" type="typeWE" route="down_right" depart="29" color="1,0,0"/>
    <vehicle id="down_6" type="typeWE" route="up" depart="29" color="1,0,0"/>
    <vehicle id="right_7" type="typeWE" route="left" depart="65" />
    <vehicle id="right_8" type="typeWE" route="right" depart="70" />
    <vehicle id="left_9" type="typeWE" route="left_up" depart="71" />
    <vehicle id="down_10" type="typeWE" route="up" depart="77" color="1,0,0"/>
    <vehicle id="right_11" type="typeWE" route="right_down" depart="82" />
    <vehicle id="right_12" type="typeWE" route="left" depart="88" />
    <vehicle id="right_13" type="typeWE" route="left" depart="94" />
    <vehicle id="right_14" type="typeWE" route="right_down" depart="99" />
    <vehicle id="down_15" type="typeWE" route="up" depart="101" color="1,0,0"/>
    <vehicle id="right_16" type="typeWE" route="right" depart="115" />
    <vehicle id="up_17" type="typeWE" route="down" depart="117" color="1,0,0"/>
    <vehicle id="right_18" type="typeWE" route="left" depart="119" />
    <vehicle id="up_19" type="typeWE" route="down" depart="119" color="1,0,0"/>
    <vehicle id="down_20" type="typeWE" route="up" depart="122" color="1,0,0"/>
    <vehicle id="right_21" type="typeWE" route="right_down" depart="125" />
    <vehicle id="up_22" type="typeWE" route="down_right" depart="128" color="1,0,0"/>
    <vehicle id="down_23" type="typeWE" route="up" depart="139" color="1,0,0"/>
    <vehicle id="down_24" type="typeWE" route="up" depart="141" color="1,0,0"/>
    <vehicle id="right_25" type="typeWE" route="left" depart="151" />
    <vehicle id="up_26" type="typeWE" route="down" depart="162" color="1,0,0"/>
    <vehicle id="down_27" type="typeWE" route="up" depart="211" color="1,0,0"/>
    <vehicle id="right_28" type="typeWE" route="right" depart="230" />
    <vehicle id="right_29" type="typeWE" route="right" depart="232" />
    <vehicle id="right_30" type="typeWE" route="left_down" depart="243" />
    <vehicle id="right_31" type="typeWE" route="right_up" depart="246" />
    <vehicle id="left_32" type="typeWE" route="left_up" depart="247" />
    <vehicle id="right_33" type="typeWE" route="right" depart="270" />
    <vehicle id="up_34" type="typeWE" route="down" depart="271" color="1,0,0"/>
    <vehicle id="down_35" type="typeWE" route="up" depart="272" color="1,0,0"/>
    <vehicle id="down_36" type="typeWE" route="up_left" depart="279" color="1,0,0"/>
    <vehicle id="right_37" type="typeWE" route="right_up" depart="281" />
    <vehicle id="right_38" type="typeWE" route="left" depart="283" />
    <vehicle id="down_39" type="typeWE" route="up_left" depart="284" color="1,0,0"/>
    <vehicle id="up_40" type="typeWE" route="down_right" depart="329" color="1,0,0"/>
    <vehicle id="down_41" type="typeWE" route="up" depart="330" color="1,0,0"/>
    <vehicle id="up_42" type="typeWE" route="down_right" depart="333" color="1,0,0"/>
    <vehicle id="up_43" type="typeWE" route="down" depart="337" color="1,0,0"/>
    <vehicle id="up_44" type="typeWE" route="down" depart="342" color="1,0,0"/>
    <vehicle id="right_45" type="typeWE" route="right" depart="374" />
    <vehicle id="up_46" type="typeWE" route="down_right" depart="386" color="1,0,0"/>
    <vehicle id="up_47" type="typeWE" route="down" depart="398" color="1,0,0"/>
    <vehicle id="right_48" type="typeWE" route="left" depart="414" />
    <vehicle id="right_49" type="typeWE" route="right_up" depart="418" />
    <vehicle id="down_50" type="typeWE" route="up" depart="434" color="1,0,0"/>
    <vehicle id="down_51" type="typeWE" route="up" depart="441" color="1,0,0"/>
    <vehicle id="right_52" type="typeWE" route="right" depart="451" />
    <vehicle id="left_53" type="typeWE" route="left_up" depart="472" />
    <vehicle id="left_54" type="typeWE" route="left_up" depart="476" />
    <vehicle id="right_55" type="typeWE" route="right" depart="494" />
    <vehicle id="right_56" type="typeWE" route="right" depart="509" />
    <vehicle id="up_57" type="typeWE" route="down" depart="510" color="1,0,0"/>
    <vehicle id="down_58" type="typeWE" route="up" depart="510" color="1,0,0"/>
    <vehicle id="up_59" type="typeWE" route="down" depart="511" color="1,0,0"/>
    <vehicle id="right_60" type="typeWE" route="right_down" depart="518" />
    <vehicle id="down_61" type="typeWE" route="up_left" depart="529" color="1,0,0"/>
    <vehicle id="up_62" type="typeWE" route="down_right" depart="534" color="1,0,0"/>
    <vehicle id="up_63" type="typeWE" route="down" depart="536" color="1,0,0"/>
    <vehicle id="right_64" type="typeWE" route="left" depart="561" />
    <vehicle id="down_65" type="typeWE" route="up_left" depart="563" color="1,0,0"/>
    <vehicle id="down_66" type="typeWE" route="up" depart="571" color="1,0,0"/>
    <vehicle id="left_67" type="typeWE" route="left_up" depart="584" />
    <vehicle id="down_68" type="typeWE" route="up" depart="586" color="1,0,0"/>
    <vehicle id="right_69" type="typeWE" route="left" depart="606" />
    <vehicle id="up_70" type="typeWE" route="down" depart="612" color="1,0,0"/>
    <vehicle id="right_71" type="typeWE" route="left_down" depart="617" />
    <vehicle id="right_72" type="typeWE" route="right" depart="618" />
    <vehicle id="right_73" type="typeWE" route="left" depart="622" />
    <vehicle id="left_74" type="typeWE" route="left_up" depart="634" />
    <vehicle id="up_75" type="typeWE" route="down" depart="646" color="1,0,0"/>
    <vehicle id="left_76" type="typeWE" route="left_up" depart="658" />
    <vehicle id="right_77" type="typeWE" route="left_down" depart="661" />
    <vehicle id="up_78" type="typeWE" route="down" depart="662" color="1,0,0"/>
    <vehicle id="down_79" type="typeWE" route="up" depart="677" color="1,0,0"/>
    <vehicle id="up_80" type="typeWE" route="down" depart="679" color="1,0,0"/>
    <vehicle id="right_81" type="typeWE" route="right_down" depart="682" />
    <vehicle id="right_82" type="typeWE" route="left_down" depart="685" />
    <vehicle id="up_83" type="typeWE" route="down" depart="699" color="1,0,0"/>
    <vehicle id="right_84" type="typeWE" route="right_up" depart="703" />
    <vehicle id="up_85" type="typeWE" route="down" depart="704" color="1,0,0"/>
    <vehicle id="down_86" type="typeWE" route="up" depart="718" color="1,0,0"/>
    <vehicle id="down_87" type="typeWE" route="up" depart="725" color="1,0,0"/>
    <vehicle id="up_88" type="typeWE" route="down_right" depart="731" color="1,0,0"/>
    <vehicle id="down_89" type="typeWE" route="up" depart="755" color="1,0,0"/>
    <vehicle id="down_90" type="typeWE" route="up_left" depart="762" color="1,0,0"/>
    <vehicle id="down_91" type="typeWE" route="up" depart="765" color="1,0,0"/>
    <vehicle id="down_92" type="typeWE" route="up" depart="770" color="1,0,0"/>
    <vehicle id="right_93" type="typeWE" route="left" depart="771" />
    <vehicle id="down_94" type="typeWE" route="up_left" depart="771" color="1,0,0"/>
    <vehicle id="right_95" type="typeWE" route="right" depart="797" />
    <vehicle id="up_96" type="typeWE" route="down_right" depart="800" color="1,0,0"/>
    <vehicle id="right_97" type="typeWE" route="left" depart="811" />
    <vehicle id="right_98" type="typeWE" route="right" depart="819" />
    <vehicle id="right_99" type="typeWE" route="left" depart="832" />
    <vehicle id="down_100" type="typeWE" route="up_left" depart="845" color="1,0,0"/>
    <vehicle id="left_101" type="typeWE" route="left_up" depart="872" />
    <vehicle id="down_102" type="typeWE" route="up_left" depart="879" color="1,0,0"/>
    <vehicle id="down_103" type="typeWE" route="up" depart="893" color="1,0,0"/>
    <vehicle id="left_104" type="typeWE" route="left_up" depart="900" />
    <vehicle id="down_105" type="typeWE" route="up" depart="906" color="1,0,0"/>
    <vehicle id="right_106" type="typeWE" route="left" depart="915" />
    <vehicle id="up_107" type="typeWE" route="down_right" depart="925" color="1,0,0"/>
    <vehicle id="right_108" type="typeWE" route="right_up" depart="931" />
    <vehicle id="right_109" type="typeWE" route="right_down" depart="952" />
    <vehicle id="right_110" type="typeWE" route="right" depart="955" />
    <vehicle id="right_111" type="typeWE" route="left" depart="971" />
    <vehicle id="left_112" type="typeWE" route="left_up" depart="980" />
    <vehicle id="up_113" type="typeWE" route="down_right" depart="987" color="1,0,0"/>
    <vehicle id="up_114" type="typeWE" route="down_right" depart="997" color="1,0,0"/>
    <vehicle id="down_115" type="typeWE" route="up" depart="999" color="1,0,0"/>
    <vehicle id="up_116" type="typeWE" route="down_right" depart="1013" color="1,0,0"/>
    <vehicle id="left_117" type="typeWE" route="left_up" depart="1026" />
    <vehicle id="down_118" type="typeWE" route="up" depart="1035" color="1,0,0"/>
    <vehicle id="right_119" type="typeWE" route="left" depart="1038" />
    <vehicle id="right_120" type="typeWE" route="left" depart="1041" />
    <vehicle id="right_121" type="typeWE" route="left" depart="1047" />
    <vehicle id="right_122" type="typeWE" route="right" depart="1048" />
    <vehicle id="up_123" type="typeWE" route="down" depart="1048" color="1,0,0"/>
    <vehicle id="right_124" type="typeWE" route="left" depart="1049" />
    <vehicle id="down_125" type="typeWE" route="up_left" depart="1055" color="1,0,0"/>
    <vehicle id="up_126" type="typeWE" route="down_right" depart="1070" color="1,0,0"/>
    <vehicle id="down_127" type="typeWE" route="up" depart="1081" color="1,0,0"/>
    <vehicle id="up_128" type="typeWE" route="down" depart="1082" color="1,0,0"/>
    <vehicle id="right_129" type="typeWE" route="left" depart="1107" />
    <vehicle id="right_130" type="typeWE" route="right" depart="1117" />
    <vehicle id="down_131" type="typeWE" route="up_left" depart="1127" color="1,0,0"/>
    <vehicle id="right_132" type="typeWE" route="left_down" depart="1132" />
    <vehicle id="down_133" type="typeWE" route="up_left" depart="1132" color="1,0,0"/>
    <vehicle id="right_134" type="typeWE" route="right" depart="1135" />
    <vehicle id="right_135" type="typeWE" route="right" depart="1137" />
    <vehicle id="right_136" type="typeWE" route="right" depart="1138" />
    <vehicle id="right_137" type="typeWE" route="right_down" depart="1141" />
    <vehicle id="right_138" type="typeWE" route="right" depart="1145" />
    <vehicle id="right_139" type="typeWE" route="left" depart="1162" />
    <vehicle id="up_140" type="typeWE" route="down" depart="1186" color="1,0,0"/>
    <vehicle id="left_141" type="typeWE" route="left_up" depart="1204" />
    <vehicle id="down_142" type="typeWE" route="up_left" depart="1206" color="1,0,0"/>
    <vehicle id="right_143" type="typeWE" route="left" depart="1208" />
    <vehicle id="right_144" type="typeWE" route="right_down" depart="1209" />
    <vehicle id="down_145" type="typeWE" route="up" depart="1215" color="1,0,0"/>
    <vehicle id="up_146" type="typeWE" route="down" depart="1221" color="1,0,0"/>
    <vehicle id="down_147" type="typeWE" route="up" depart="1225" color="1,0,0"/>
    <vehicle id="down_148" type="typeWE" route="up" depart="1230" color="1,0,0"/>
    <vehicle id="down_149" type="typeWE" route="up" depart="1243" color="1,0,0"/>
    <vehicle id="up_150" type="typeWE" route="down_right" depart="1256" color="1,0,0"/>
    <vehicle id="up_151" type="typeWE" route="down" depart="1260" color="1,0,0"/>
    <vehicle id="right_152" type="typeWE" route="right" depart="1268" />
    <vehicle id="left_153" type="typeWE" route="left_up" depart="1287" />
    <vehicle id="right_154" type="typeWE" route="right" depart="1297" />
    <vehicle id="down_155" type="typeWE" route="up_left" depart="1303" color="1,0,0"/>
    <vehicle id="left_156" type="typeWE" route="left_up" depart="1305" />
    <vehicle id="right_157" type="typeWE" route="left" depart="1322" />
    <vehicle id="down_158" type="typeWE" route="up" depart="1346" color="1,0,0"/>
    <vehicle id="right_159" type="typeWE" route="right_down" depart="1347" />
    <vehicle id="left_160" type="typeWE" route="left_up" depart="1352" />
    <vehicle id="down_161" type="typeWE" route="up" depart="1374" color="1,0,0"/>
    <vehicle id="down_162" type="typeWE" route="up" depart="1377" color="1,0,0"/>
    <vehicle id="up_163" type="typeWE" route="down" depart="1380" color="1,0,0"/>
    <vehicle id="right_164" type="typeWE" route="right" depart="1415" />
    <vehicle id="right_165" type="typeWE" route="right" depart="1422" />
    <vehicle id="down_166" type="typeWE" route="up_left" depart="1435" color="1,0,0"/>
    <vehicle id="right_167" type="typeWE" route="left" depart="1449" />
    <vehicle id="up_168" type="typeWE" route="down" depart="1456" color="1,0,0"/>
    <vehicle id="down_169" type="typeWE" route="up_left" depart="1466" color="1,0,0"/>
    <vehicle id="up_170" type="typeWE" route="down_right" depart="1500" color="1,0,0"/>
    <vehicle id="up_171" type="typeWE" route="down" depart="1501" color="1,0,0"/>
    <vehicle id="right_172" type="typeWE" route="right" depart="1505" />
    <vehicle id="right_173" type="typeWE" route="right" depart="1518" />
    <vehicle id="right_174" type="typeWE" route="right_up" depart="1530" />
    <vehicle id="down_175" type="typeWE" route="up" depart="1541" color="1,0,0"/>
    <vehicle id="right_176" type="typeWE" route="right_down" depart="1554" />
    <vehicle id="down_177" type="typeWE" route="up_left" depart="1572" color="1,0,0"/>
    <vehicle id="right_178" type="typeWE" route="left" depart="1595" />
    <vehicle id="right_179" type="typeWE" route="left" depart="1598" />
    <vehicle id="right_180" type="typeWE" route="right_down" depart="1623" />
    <vehicle id="right_181" type="typeWE" route="right_down" depart="1627" />
    <vehicle id="right_182" type="typeWE" route="left" depart="1627" />
    <vehicle id="right_183" type="typeWE" route="right_down" depart="1630" />
    <vehicle id="down_184" type="typeWE" route="up" depart="1632" color="1,0,0"/>
    <vehicle id="up_185" type="typeWE" route="down_right" depart="1639" color="1,0,0"/>
    <vehicle id="down_186" type="typeWE" route="up" depart="1647" color="1,0,0"/>
    <vehicle id="left_187" type="typeWE" route="left_up" depart="1665" />
    <vehicle id="up_188" type="typeWE" route="down" depart="1665" color="1,0,0"/>
    <vehicle id="right_189" type="typeWE" route="left" depart="1671" />
    <vehicle id="down_190" type="typeWE" route="up" depart="1677" color="1,0,0"/>
    <vehicle id="right_191" type="typeWE" route="right_up" depart="1712" />
    <vehicle id="right_192" type="typeWE" route="left" depart="1714" />
    <vehicle id="right_193" type="typeWE" route="right_down" depart="1718" />
    <vehicle id="right_194" type="typeWE" route="left" depart="1728" />
    <vehicle id="right_195" type="typeWE" route="right" depart="1729" />
    <vehicle id="down_196" type="typeWE" route="up" depart="1736" color="1,0,0"/>
    <vehicle id="right_197" type="typeWE" route="left" depart="1737" />
    <vehicle id="down_198" type="typeWE" route="up" depart="1739" color="1,0,0"/>
    <vehicle id="right_199" type="typeWE" route="left" depart="1742" />
    <vehicle id="right_200" type="typeWE" route="right" depart="1743" />
    <vehicle id="left_201" type="typeWE" route="left_up" depart="1757" />
    <vehicle id="right_202" type="typeWE" route="right" depart="1758" />
    <vehicle id="down_203" type="typeWE" route="up" depart="1769" color="1,0,0"/>
    <vehicle id="up_204" type="typeWE" route="down" depart="1778" color="1,0,0"/>
    <vehicle id="right_205" type="typeWE" route="right_down" depart="1785" />
    <vehicle id="left_206" type="typeWE" route="left_up" depart="1788" />
    <vehicle id="down_207" type="typeWE" route="up_left" depart="1789" color="1,0,0"/>
    <vehicle id="up_208" type="typeWE" route="down" depart="1791" color="1,0,0"/>
    <vehicle id="right_209" type="typeWE" route="right" depart="1792" />
    <vehicle id="right_210" type="typeWE" route="left" depart="1818" />
    <vehicle id="right_211" type="typeWE" route="right" depart="1826" />
    <vehicle id="right_212" type="typeWE" route="right" depart="1828" />
    <vehicle id="left_213" type="typeWE" route="left_up" depart="1841" />
    <vehicle id="left_214" type="typeWE" route="left_up" depart="1855" />
    <vehicle id="up_215" type="typeWE" route="down_right" depart="1858" color="1,0,0"/>
    <vehicle id="right_216" type="typeWE" route="right" depart="1864" />
    <vehicle id="right_217" type="typeWE" route="right" depart="1887" />
    <vehicle id="right_218" type="typeWE" route="right_up" depart="1890" />
    <vehicle id="right_219" type="typeWE" route="right" depart="1898" />
    <vehicle id="right_220" type="typeWE" route="right" depart="1902" />
    <vehicle id="right_221" type="typeWE" route="right" depart="1912" />
    <vehicle id="left_222" type="typeWE" route="left_up" depart="1919" />
    <vehicle id="down_223" type="typeWE" route="up" depart="1927" color="1,0,0"/>
    <vehicle id="down_224" type="typeWE" route="up" depart="1928" color="1,0,0"/>
    <vehicle id="right_225" type="typeWE" route="right_up" depart="1938" />
    <vehicle id="up_226" type="typeWE" route="down_right" depart="1957" color="1,0,0"/>
    <vehicle id="right_227" type="typeWE" route="right" depart="1977" />
    <vehicle id="down_228" type="typeWE" route="up" depart="1986" color="1,0,0"/>
    <vehicle id="down_229" type="typeWE" route="up" depart="1990" color="1,0,0"/>
    <vehicle id="right_230" type="typeWE" route="left" depart="1998" />
    <vehicle id="right_231" type="typeWE" route="right_up" depart="2010" />
    <vehicle id="down_232" type="typeWE" route="up" depart="2012" color="1,0,0"/>
    <vehicle id="up_233" type="typeWE" route="down" depart="2019" color="1,0,0"/>
    <vehicle id="up_234" type="typeWE" route="down" depart="2043" color="1,0,0"/>
    <vehicle id="right_235" type="typeWE" route="right_down" depart="2056" />
    <vehicle id="up_236" type="typeWE" route="down" depart="2072" color="1,0,0"/>
    <vehicle id="up_237" type="typeWE" route="down" depart="2083" color="1,0,0"/>
    <vehicle id="up_238" type="typeWE" route="down" depart="2094" color="1,0,0"/>
    <vehicle id="left_239" type="typeWE" route="left_up" depart="2106" />
    <vehicle id="right_240" type="typeWE" route="right" depart="2110" />
    <vehicle id="down_241" type="typeWE" route="up" depart="2111" color="1,0,0"/>
    <vehicle id="down_242" type="typeWE" route="up" depart="2117" color="1,0,0"/>
    <vehicle id="down_243" type="typeWE" route="up" depart="2126" color="1,0,0"/>
    <vehicle id="right_244" type="typeWE" route="left_down" depart="2136" />
    <vehicle id="up_245" type="typeWE" route="down" depart="2141" color="1,0,0"/>
    <vehicle id="right_246" type="typeWE" route="left_down" depart="2143" />
    <vehicle id="right_247" type="typeWE" route="left" depart="2148" />
    <vehicle id="up_248" type="typeWE" route="down_right" depart="2156" color="1,0,0"/>
    <vehicle id="down_249" type="typeWE" route="up" depart="2160" color="1,0,0"/>
    <vehicle id="right_250" type="typeWE" route="right" depart="2184" />
    <vehicle id="up_251" type="typeWE" route="down" depart="2200" color="1,0,0"/>
    <vehicle id="right_252" type="typeWE" route="left" depart="2205" />
    <vehicle id="right_253" type="typeWE" route="right_up" depart="2209" />
    <vehicle id="right_254" type="typeWE" route="left_down" depart="2222" />
    <vehicle id="down_255" type="typeWE" route="up_left" depart="2224" color="1,0,0"/>
    <vehicle id="right_256" type="typeWE" route="right" depart="2234" />
    <vehicle id="up_257" type="typeWE" route="down_right" depart="2242" color="1,0,0"/>
    <vehicle id="down_258" type="typeWE" route="up_left" depart="2244" color="1,0,0"/>
    <vehicle id="right_259" type="typeWE" route="right_down" depart="2248" />
    <vehicle id="right_260" type="typeWE" route="right_down" depart="2261" />
    <vehicle id="up_261" type="typeWE" route="down_right" depart="2263" color="1,0,0"/>
    <vehicle id="left_262" type="typeWE" route="left_up" depart="2278" />
    <vehicle id="up_263" type="typeWE" route="down_right" depart="2278" color="1,0,0"/>
    <vehicle id="right_264" type="typeWE" route="right_down" depart="2291" />
    <vehicle id="right_265" type="typeWE" route="right" depart="2299" />
    <vehicle id="down_266" type="typeWE" route="up" depart="2312" color="1,0,0"/>
    <vehicle id="right_267" type="typeWE" route="right" depart="2320" />
    <vehicle id="right_268" type="typeWE" route="left" depart="2322" />
    <vehicle id="down_269" type="typeWE" route="up_left" depart="2333" color="1,0,0"/>
    <vehicle id="up_270" type="typeWE" route="down_right" depart="2335" color="1,0,0"/>
    <vehicle id="down_271" type="typeWE" route="up" depart="2347" color="1,0,0"/>
    <vehicle id="up_272" type="typeWE" route="down" depart="2351" color="1,0,0"/>
    <vehicle id="right_273" type="typeWE" route="left" depart="2358" />
    <vehicle id="down_274" type="typeWE" route="up" depart="2358" color="1,0,0"/>
    <vehicle id="right_275" type="typeWE" route="right" depart="2368" />
    <vehicle id="right_276" type="typeWE" route="left" depart="2368" />
    <vehicle id="right_277" type="typeWE" route="right" depart="2402" />
    <vehicle id="right_278" type="typeWE" route="right_down" depart="2410" />
    <vehicle id="right_279" type="typeWE" route="left" depart="2417" />
    <vehicle id="right_280" type="typeWE" route="right" depart="2434" />
    <vehicle id="right_281" type="typeWE" route="right" depart="2441" />
    <vehicle id="down_282" type="typeWE" route="up" depart="2460" color="1,0,0"/>
    <vehicle id="down_283" type="typeWE" route="up_left" depart="2477" color="1,0,0"/>
    <vehicle id="up_284" type="typeWE" route="down" depart="2498" color="1,0,0"/>
    <vehicle id="up_285" type="typeWE" route="down" depart="2499" color="1,0,0"/>
    <vehicle id="down_286" type="typeWE" route="up_left" depart="2499" color="1,0,0"/>
    <vehicle id="up_287" type="typeWE" route="down_right" depart="2509" color="1,0,0"/>
    <vehicle id="right_288" type="typeWE" route="right_down" depart="2513" />
    <vehicle id="up_289" type="typeWE" route="down" depart="2529" color="1,0,0"/>
    <vehicle id="right_290" type="typeWE" route="right_up" depart="2535" />
    <vehicle id="right_291" type="typeWE" route="right" depart="2540" />
    <vehicle id="right_292" type="typeWE" route="left_down" depart="2542" />
    <vehicle id="right_293" type="typeWE" route="left" depart="2545" />
    <vehicle id="up_294" type="typeWE" route="down" depart="2553" color="1,0,0"/>
    <vehicle id="down_295" type="typeWE" route="up" depart="2566" color="1,0,0"/>
    <vehicle id="right_296" type="typeWE" route="left" depart="2587" />
    <vehicle id="down_297" type="typeWE" route="up" depart="2589" color="1,0,0"/>
    <vehicle id="right_298" type="typeWE" route="left_down" depart="2590" />
    <vehicle id="right_299" type="typeWE" route="left_down" depart="2596" />
    <vehicle id="down_300" type="typeWE" route="up" depart="2599" color="1,0,0"/>
    <vehicle id="down_301" type="typeWE" route="up_left" depart="2605" color="1,0,0"/>
    <vehicle id="down_302" type="typeWE" route="up" depart="2624" color="1,0,0"/>
    <vehicle id="down_303" type="typeWE" route="up" depart="2626" color="1,0,0"/>
    <vehicle id="down_304" type="typeWE" route="up" depart="2631" color="1,0,0"/>
    <vehicle id="right_305" type="typeWE" route="right_down" depart="2636" />
    <vehicle id="down_306" type="typeWE" route="up_left" depart="2652" color="1,0,0"/>
    <vehicle id="right_307" type="typeWE" route="left" depart="2664" />
    <vehicle id="right_308" type="typeWE" route="left" depart="2672" />
    <vehicle id="down_309" type="typeWE" route="up" depart="2678" color="1,0,0"/>
    <vehicle id="up_310" type="typeWE" route="down_right" depart="2680" color="1,0,0"/>
    <vehicle id="right_311" type="typeWE" route="right" depart="2683" />
    <vehicle id="right_312" type="typeWE" route="right_up" depart="2688" />
    <vehicle id="right_313" type="typeWE" route="right" depart="2689" />
    <vehicle id="up_314" type="typeWE" route="down_right" depart="2711" color="1,0,0"/>
    <vehicle id="down_315" type="typeWE" route="up" depart="2714" color="1,0,0"/>
    <vehicle id="up_316" type="typeWE" route="down_right" depart="2728" color="1,0,0"/>
    <vehicle id="down_317" type="typeWE" route="up" depart="2733" color="1,0,0"/>
    <vehicle id="right_318" type="typeWE" route="right" depart="2752" />
    <vehicle id="up_319" type="typeWE" route="down" depart="2769" color="1,0,0"/>
    <vehicle id="right_320" type="typeWE" route="right_up" depart="2782" />
    <vehicle id="right_321" type="typeWE" route="right_down" depart="2786" />
    <vehicle id="right_322" type="typeWE" route="right_up" depart="2788" />
    <vehicle id="right_323" type="typeWE" route="left_down" depart="2796" />
    <vehicle id="down_324" type="typeWE" route="up_left" depart="2796" color="1,0,0"/>
    <vehicle id="right_325" type="typeWE" route="right" depart="2801" />
    <vehicle id="up_326" type="typeWE" route="down" depart="2812" color="1,0,0"/>
    <vehicle id="right_327" type="typeWE" route="right_up" depart="2827" />
    <vehicle id="right_328" type="typeWE" route="right" depart="2853" />
    <vehicle id="down_329" type="typeWE" route="up_left" depart="2860" color="1,0,0"/>
    <vehicle id="left_330" type="typeWE" route="left_up" depart="2868" />
    <vehicle id="up_331" type="typeWE" route="down" depart="2889" color="1,0,0"/>
    <vehicle id="down_332" type="typeWE" route="up" depart="2889" color="1,0,0"/>
    <vehicle id="left_333" type="typeWE" route="left_up" depart="2911" />
    <vehicle id="up_334" type="typeWE" route="down" depart="2911" color="1,0,0"/>
    <vehicle id="down_335" type="typeWE" route="up" depart="2930" color="1,0,0"/>
    <vehicle id="up_336" type="typeWE" route="down" depart="2940" color="1,0,0"/>
    <vehicle id="right_337" type="typeWE" route="left_down" depart="2942" />
    <vehicle id="left_338" type="typeWE" route="left_up" depart="2947" />
    <vehicle id="left_339" type="typeWE" route="left_up" depart="2960" />
    <vehicle id="right_340" type="typeWE" route="right_up" depart="2970" />
    <vehicle id="down_341" type="typeWE" route="up_left" depart="2970" color="1,0,0"/>
    <vehicle id="up_342" type="typeWE" route="down" depart="3006" color="1,0,0"/>
    <vehicle id="right_343" type="typeWE" route="right_up" depart="3024" />
    <vehicle id="right_344" type="typeWE" route="left" depart="3033" />
    <vehicle id="down_345" type="typeWE" route="up" depart="3039" color="1,0,0"/>
    <vehicle id="right_346" type="typeWE" route="right" depart="3046" />
    <vehicle id="right_347" type="typeWE" route="right_down" depart="3054" />
    <vehicle id="up_348" type="typeWE" route="down" depart="3058" color="1,0,0"/>
    <vehicle id="up_349" type="typeWE" route="down_right" depart="3062" color="1,0,0"/>
    <vehicle id="right_350" type="typeWE" route="right_up" depart="3071" />
    <vehicle id="down_351" type="typeWE" route="up_left" depart="3078" color="1,0,0"/>
    <vehicle id="right_352" type="typeWE" route="right" depart="3080" />
    <vehicle id="right_353" type="typeWE" route="right" depart="3082" />
    <vehicle id="right_354" type="typeWE" route="right_up" depart="3087" />
    <vehicle id="right_355" type="typeWE" route="left_down" depart="3096" />
    <vehicle id="right_356" type="typeWE" route="left_down" depart="3106" />
    <vehicle id="up_357" type="typeWE" route="down" depart="3106" color="1,0,0"/>
    <vehicle id="up_358" type="typeWE" route="down" depart="3125" color="1,0,0"/>
    <vehicle id="down_359" type="typeWE" route="up" depart="3127" color="1,0,0"/>
    <vehicle id="down_360" type="typeWE" route="up" depart="3132" color="1,0,0"/>
    <vehicle id="right_361" type="typeWE" route="right_down" depart="3143" />
    <vehicle id="up_362" type="typeWE" route="down_right" depart="3143" color="1,0,0"/>
    <vehicle id="down_363" type="typeWE" route="up" depart="3143" color="1,0,0"/>
    <vehicle id="down_364" type="typeWE" route="up" depart="3151" color="1,0,0"/>
    <vehicle id="right_365" type="typeWE" route="left" depart="3154" />