<routes>
        <vType id="typeWE" accel="0.8" decel="4.5" sigma="0.5" length="5" minGap="2.5" maxSpeed="16.67" guiShape="passenger"/>
	<vType id="typeNS" accel="0.8" decel="4.5" sigma="0.5" length="5" minGap="2.5" maxSpeed="16.67" guiShape="passenger"/>
	<route id="left" edges="366845096#0 366845096#1 366845096#20 366845096#22 366845096#3 366845096#4 366845096#5"/>
	<route id="left_up" edges="366845096#0 366845096#1 366845096#20 366845096#22 -157076458#1 -157076458#0"/>
	<route id="left_down" edges="366845096#0 366845096#1 366845096#20 366845096#22 -26446721#2 -26446721#1 -26446721#0"/>
	<route id="right" edges="-366845096#5 -366845096#4 -366845096#30 -366845096#32 -366845096#2 -366845096#1 -366845096#0 "/>
	<route id="right_up" edges="-366845096#5 -366845096#4 -366845096#30 -366845096#32 -157076458#1 -157076458#0 "/>
	<route id="right_down" edges="-366845096#5 -366845096#4 -366845096#30 -366845096#32 -26446721#2 -26446721#1 -26446721#0"/>
	<route id="up" edges="157076458#0 157076458#1 -26446721#2 -26446721#1 -26446721#0"/>
	<route id="up_left" edges="157076458#0 157076458#1 -366845096#2 -366845096#1 -366845096#0"/>
	<route id="down" edges="26446721#0 26446721#1 26446721#2 -157076458#1 -157076458#0"/>
	<route id="down_right" edges="26446721#0 26446721#1 26446721#2 366845096#3 366845096#4 366845096#5"/>
    <vehicle id="right_0" type="typeWE" route="left_down" depart="0" />
    <vehicle id="right_1" type="typeWE" route="left_down" depart="1" />
    <vehicle id="right_2" type="typeWE" route="right_down" depart="2" />
    <vehicle id="up_3" type="typeWE" route="down" depart="3" color="1,0,0"/>
    <vehicle id="right_4" type="typeWE" route="right_down" depart="5" />
    <vehicle id="up_5" type="typeWE" route="down_right" depart="8" color="1,0,0"/>
    <vehicle id="right_6" type="typeWE" route="right_down" depart="9" />
    <vehicle id="right_7" type="typeWE" route="left" depart="9" />
    <vehicle id="right_8" type="typeWE" route="right" depart="14" />
    <vehicle id="right_9" type="typeWE" route="right_down" depart="19" />
    <vehicle id="right_10" type="typeWE" route="right" depart="20" />
    <vehicle id="right_11" type="typeWE" route="right" depart="21" />
    <vehicle id="right_12" type="typeWE" route="right" depart="22" />
    <vehicle id="right_13" type="typeWE" route="right_up" depart="26" />
    <vehicle id="right_14" type="typeWE" route="left" depart="27" />
    <vehicle id="right_15" type="typeWE" route="right" depart="28" />
    <vehicle id="right_16" type="typeWE" route="right_down" depart="32" />
    <vehicle id="right_17" type="typeWE" route="left_down" depart="33" />
    <vehicle id="right_18" type="typeWE" route="right_down" depart="34" />
    <vehicle id="right_19" type="typeWE" route="left" depart="38" />
    <vehicle id="right_20" type="typeWE" route="left" depart="41" />
    <vehicle id="right_21" type="typeWE" route="left" depart="43" />
    <vehicle id="right_22" type="typeWE" route="right" depart="47" />
    <vehicle id="right_23" type="typeWE" route="right_down" depart="48" />
    <vehicle id="right_24" type="typeWE" route="right_up" depart="49" />
    <vehicle id="right_25" type="typeWE" route="right" depart="57" />
    <vehicle id="right_26" type="typeWE" route="right_down" depart="58" />
    <vehicle id="up_27" type="typeWE" route="down" depart="61" color="1,0,0"/>
    <vehicle id="right_28" type="typeWE" route="right_down" depart="63" />
    <vehicle id="up_29" type="typeWE" route="down" depart="69" color="1,0,0"/>
    <vehicle id="down_30" type="typeWE" route="up_left" depart="73" color="1,0,0"/>
    <vehicle id="right_31" type="typeWE" route="left_down" depart="76" />
    <vehicle id="right_32" type="typeWE" route="right" depart="77" />
    <vehicle id="right_33" type="typeWE" route="right" depart="79" />
    <vehicle id="right_34" type="typeWE" route="left" depart="80" />
    <vehicle id="up_35" type="typeWE" route="down_right" depart="84" color="1,0,0"/>
    <vehicle id="right_36" type="typeWE" route="left" depart="87" />
    <vehicle id="right_37" type="typeWE" route="right_down" depart="89" />
    <vehicle id="down_38" type="typeWE" route="up" depart="91" color="1,0,0"/>
    <vehicle id="right_39" type="typeWE" route="left_down" depart="92" />
    <vehicle id="right_40" type="typeWE" route="right_down" depart="93" />
    <vehicle id="right_41" type="typeWE" route="right" depart="99" />
    <vehicle id="down_42" type="typeWE" route="up" depart="103" color="1,0,0"/>
    <vehicle id="up_43" type="typeWE" route="down" depart="106" color="1,0,0"/>
    <vehicle id="right_44" type="typeWE" route="left" depart="108" />
    <vehicle id="up_45" type="typeWE" route="down" depart="108" color="1,0,0"/>
    <vehicle id="right_46" type="typeWE" route="left_down" depart="109" />
    <vehicle id="right_47" type="typeWE" route="right_down" depart="111" />
    <vehicle id="up_48" type="typeWE" route="down_right" depart="113" color="1,0,0"/>
    <vehicle id="right_49" type="typeWE" route="right" depart="116" />
    <vehicle id="left_50" type="typeWE" route="left_up" depart="116" />
    <vehicle id="right_51" type="typeWE" route="right" depart="122" />
    <vehicle id="right_52" type="typeWE" route="left_down" depart="127" />
    <vehicle id="right_53" type="typeWE" route="right_up" depart="129" />
    <vehicle id="right_54" type="typeWE" route="right_down" depart="131" />
    <vehicle id="right_55" type="typeWE" route="right_down" depart="134" />
    <vehicle id="right_56" type="typeWE" route="left" depart="134" />
    <vehicle id="left_57" type="typeWE" route="left_up" depart="136" />
    <vehicle id="right_58" type="typeWE" route="right" depart="137" />
    <vehicle id="right_59" type="typeWE" route="right" depart="140" />
    <vehicle id="left_60" type="typeWE" route="left_up" depart="141" />
    <vehicle id="right_61" type="typeWE" route="left" depart="142" />
    <vehicle id="right_62" type="typeWE" route="right" depart="147" />
    <vehicle id="left_63" type="typeWE" route="left_up" depart="151" />
    <vehicle id="right_64" type="typeWE" route="right_down" depart="154" />
    <vehicle id="right_65" type="typeWE" route="right" depart="155" />
    <vehicle id="up_66" type="typeWE" route="down" depart="156" color="1,0,0"/>
    <vehicle id="right_67" type="typeWE" route="left" depart="166" />
    <vehicle id="right_68" type="typeWE" route="right" depart="178" />
    <vehicle id="down_69" type="typeWE" route="up" depart="179" color="1,0,0"/>
    <vehicle id="down_70" type="typeWE" route="up_left" depart="185" color="1,0,0"/>
    <vehicle id="right_71" type="typeWE" route="left" depart="187" />
    <vehicle id="right_72" type="typeWE" route="left" depart="188" />
    <vehicle id="right_73" type="typeWE" route="right" depart="190" />
    <vehicle id="down_74" type="typeWE" route="up" depart="191" color="1,0,0"/>
    <vehicle id="right_75" type="typeWE" route="right" depart="198" />
    <vehicle id="up_76" type="typeWE" route="down" depart="209" color="1,0,0"/>
    <vehicle id="left_77" type="typeWE" route="left_up" depart="211" />
    <vehicle id="up_78" type="typeWE" route="down" depart="211" color="1,0,0"/>
    <vehicle id="up_79" type="typeWE" route="down" depart="218" color="1,0,0"/>
    <vehicle id="right_80" type="typeWE" route="left" depart="221" />
    <vehicle id="right_81" type="typeWE" route="left_down" depart="222" />
    <vehicle id="right_82" type="typeWE" route="right_up" depart="223" />
    <vehicle id="up_83" type="typeWE" route="down" depart="224" color="1,0,0"/>
    <vehicle id="right_84" type="typeWE" route="right_down" depart="226" />
    <vehicle id="right_85" type="typeWE" route="left" depart="227" />
    <vehicle id="right_86" type="typeWE" route="left" depart="229" />
    <vehicle id="right_87" type="typeWE" route="left" depart="230" />
    <vehicle id="left_88" type="typeWE" route="left_up" depart="231" />
    <vehicle id="right_89" type="typeWE" route="right" depart="234" />
    <vehicle id="right_90" type="typeWE" route="right_up" depart="238" />
    <vehicle id="right_91" type="typeWE" route="left" depart="238" />
    <vehicle id="up_92" type="typeWE" route="down" depart="245" color="1,0,0"/>
    <vehicle id="right_93" type="typeWE" route="left" depart="247" />
    <vehicle id="right_94" type="typeWE" route="left_down" depart="248" />
    <vehicle id="right_95" type="typeWE" route="right_down" depart="250" />
    <vehicle id="right_96" type="typeWE" route="right" depart="254" />
    <vehicle id="right_97" type="typeWE" route="left_down" depart="254" />
    <vehicle id="right_98" type="typeWE" route="left_down" depart="255" />
    <vehicle id="left_99" type="typeWE" route="left_up" depart="257" />
    <vehicle id="right_100" type="typeWE" route="right_down" depart="259" />
    <vehicle id="right_101" type="typeWE" route="left" depart="263" />
    <vehicle id="right_102" type="typeWE" route="left" depart="269" />
    <vehicle id="down_103" type="typeWE" route="up" depart="269" color="1,0,0"/>
    <vehicle id="up_104" type="typeWE" route="down" depart="270" color="1,0,0"/>
    <vehicle id="up_105" type="typeWE" route="down_right" depart="274" color="1,0,0"/>
    <vehicle id="right_106" type="typeWE" route="right_down" depart="279" />
    <vehicle id="right_107" type="typeWE" route="left" depart="288" />
    <vehicle id="down_108" type="typeWE" route="up" depart="288" color="1,0,0"/>
    <vehicle id="right_109" type="typeWE" route="right" depart="298" />
    <vehicle id="down_110" type="typeWE" route="up_left" depart="300" color="1,0,0"/>
    <vehicle id="right_111" type="typeWE" route="right" depart="302" />
    <vehicle id="up_112" type="typeWE" route="down_right" depart="304" color="1,0,0"/>
    <vehicle id="right_113" type="typeWE" route="right" depart="306" />
    <vehicle id="right_114" type="typeWE" route="left" depart="306" />
    <vehicle id="up_115" type="typeWE" route="down" depart="307" color="1,0,0"/>
    <vehicle id="right_116" type="typeWE" route="right" depart="310" />
    <vehicle id="right_117" type="typeWE" route="right" depart="312" />
    <vehicle id="up_118" type="typeWE" route="down" depart="313" color="1,0,0"/>
    <vehicle id="up_119" type="typeWE" route="down_right" depart="316" color="1,0,0"/>
    <vehicle id="down_120" type="typeWE" route="up" depart="316" color="1,0,0"/>
    <vehicle id="right_121" type="typeWE" route="right" depart="324" />
    <vehicle id="right_122" type="typeWE" route="left" depart="325" />
    <vehicle id="down_123" type="typeWE" route="up_left" depart="328" color="1,0,0"/>
    <vehicle id="right_124" type="typeWE" route="right" depart="338" />
    <vehicle id="down_125" type="typeWE" route="up" depart="340" color="1,0,0"/>
    <vehicle id="right_126" type="typeWE" route="right" depart="342" />
    <vehicle id="right_127" type="typeWE" route="left" depart="343" />
    <vehicle id="right_128" type="typeWE" route="right_down" depart="346" />
    <vehicle id="left_129" type="typeWE" route="left_up" depart="352" />
    <vehicle id="right_130" type="typeWE" route="right_down" depart="356" />
    <vehicle id="right_131" type="typeWE" route="left" depart="360" />
    <vehicle id="up_132" type="typeWE" route="down" depart="363" color="1,0,0"/>
    <vehicle id="down_133" type="typeWE" route="up" depart="364" color="1,0,0"/>
    <vehicle id="right_134" type="typeWE" route="right" depart="370" />
    <vehicle id="right_135" type="typeWE" route="right_down" depart="372" />
    <vehicle id="right_136" type="typeWE" route="left" depart="378" />
    <vehicle id="right_137" type="typeWE" route="left_down" depart="381" />
    <vehicle id="up_138" type="typeWE" route="down_right" depart="381" color="1,0,0"/>
    <vehicle id="up_139" type="typeWE" route="down_right" depart="383" color="1,0,0"/>
    <vehicle id="right_140" type="typeWE" route="right" depart="397" />
    <vehicle id="right_141" type="typeWE" route="left_down" depart="397" />
    <vehicle id="right_142" type="typeWE" route="left" depart="400" />
    <vehicle id="right_143" type="typeWE" route="right_up" depart="404" />
    <vehicle id="right_144" type="typeWE" route="right_up" depart="410" />
    <vehicle id="up_145" type="typeWE" route="down" depart="412" color="1,0,0"/>
    <vehicle id="right_146" type="typeWE" route="right_down" depart="413" />
    <vehicle id="right_147" type="typeWE" route="left" depart="419" />
    <vehicle id="right_148" type="typeWE" route="right" depart="420" />
    <vehicle id="left_149" type="typeWE" route="left_up" depart="421" />
    <vehicle id="right_150" type="typeWE" route="left" depart="423" />
    <vehicle id="down_151" type="typeWE" route="up" depart="424" color="1,0,0"/>
    <vehicle id="right_152" type="typeWE" route="right" depart="425" />
    <vehicle id="right_153" type="typeWE" route="left_down" depart="425" />
    <vehicle id="down_154" type="typeWE" route="up_left" depart="430" color="1,0,0"/>
    <vehicle id="down_155" type="typeWE" route="up_left" depart="434" color="1,0,0"/>
    <vehicle id="right_156" type="typeWE" route="right_down" depart="435" />
    <vehicle id="down_157" type="typeWE" route="up" depart="435" color="1,0,0"/>
    <vehicle id="right_158" type="typeWE" route="right" depart="437" />
    <vehicle id="right_159" type="typeWE" route="right" depart="440" />
    <vehicle id="right_160" type="typeWE" route="left_down" depart="447" />
    <vehicle id="up_161" type="typeWE" route="down" depart="450" color="1,0,0"/>
    <vehicle id="right_162" type="typeWE" route="right" depart="451" />
    <vehicle id="right_163" type="typeWE" route="left" depart="454" />
    <vehicle id="left_164" type="typeWE" route="left_up" depart="462" />
    <vehicle id="up_165" type="typeWE" route="down" depart="464" color="1,0,0"/>
    <vehicle id="right_166" type="typeWE" route="left_down" depart="466" />
    <vehicle id="right_167" type="typeWE" route="left" depart="467" />
    <vehicle id="right_168" type="typeWE" route="right_down" depart="468" />
    <vehicle id="right_169" type="typeWE" route="left" depart="472" />
    <vehicle id="up_170" type="typeWE" route="down_right" depart="472" color="1,0,0"/>
    <vehicle id="right_171" type="typeWE" route="left_down" depart="474" />
    <vehicle id="up_172" type="typeWE" route="down_right" depart="475" color="1,0,0"/>
    <vehicle id="up_173" type="typeWE" route="down" depart="476" color="1,0,0"/>
    <vehicle id="left_174" type="typeWE" route="left_up" depart="478" />
    <vehicle id="right_175" type="typeWE" route="left" depart="481" />
    <vehicle id="down_176" type="typeWE" route="up_left" depart="482" color="1,0,0"/>
    <vehicle id="left_177" type="typeWE" route="left_up" depart="487" />
    <vehicle id="up_178" type="typeWE" route="down" depart="489" color="1,0,0"/>
    <vehicle id="right_179" type="typeWE" route="left" depart="491" />
    <vehicle id="right_180" type="typeWE" route="left" depart="493" />
    <vehicle id="right_181" type="typeWE" route="left" depart="495" />
    <vehicle id="right_182" type="typeWE" route="left" depart="501" />
    <vehicle id="right_183" type="typeWE" route="right" depart="506" />
    <vehicle id="right_184" type="typeWE" route="right" depart="510" />
    <vehicle id="right_185" type="typeWE" route="left" depart="511" />
    <vehicle id="down_186" type="typeWE" route="up_left" depart="513" color="1,0,0"/>
    <vehicle id="down_187" type="typeWE" route="up" depart="521" color="1,0,0"/>
    <vehicle id="right_188" type="typeWE" route="right_up" depart="524" />
    <vehicle id="left_189" type="typeWE" route="left_up" depart="528" />
    <vehicle id="right_190" type="typeWE" route="right_up" depart="533" />
    <vehicle id="down_191" type="typeWE" route="up" depart="535" color="1,0,0"/>
    <vehicle id="right_192" type="typeWE" route="right_down" depart="538" />
    <vehicle id="right_193" type="typeWE" route="left" depart="539" />
    <vehicle id="right_194" type="typeWE" route="right" depart="545" />
    <vehicle id="right_195" type="typeWE" route="left" depart="547" />
    <vehicle id="up_196" type="typeWE" route="down" depart="553" color="1,0,0"/>
    <vehicle id="right_197" type="typeWE" route="right_up" depart="555" />
    <vehicle id="down_198" type="typeWE" route="up_left" depart="557" color="1,0,0"/>
    <vehicle id="right_199" type="typeWE" route="left_down" depart="559" />
    <vehicle id="down_200" type="typeWE" route="up" depart="563" color="1,0,0"/>
    <vehicle id="down_201" type="typeWE" route="up" depart="564" color="1,0,0"/>
    <vehicle id="right_202" type="typeWE" route="right" depart="566" />
    <vehicle id="right_203" type="typeWE" route="left" depart="566" />
    <vehicle id="right_204" type="typeWE" route="left" depart="568" />
    <vehicle id="right_205" type="typeWE" route="right_down" depart="570" />
    <vehicle id="right_206" type="typeWE" route="right" depart="572" />
    <vehicle id="down_207" type="typeWE" route="up" depart="574" color="1,0,0"/>
    <vehicle id="left_208" type="typeWE" route="left_up" depart="579" />
    <vehicle id="down_209" type="typeWE" route="up_left" depart="579" color="1,0,0"/>
    <vehicle id="down_210" type="typeWE" route="up_left" depart="585" color="1,0,0"/>
    <vehicle id="right_211" type="typeWE" route="right" depart="591" />
    <vehicle id="right_212" type="typeWE" route="left" depart="591" />
    <vehicle id="right_213" type="typeWE" route="left" depart="593" />
    <vehicle id="right_214" type="typeWE" route="right_up" depart="594" />
    <vehicle id="right_215" type="typeWE" route="right_down" depart="601" />
    <vehicle id="right_216" type="typeWE" route="right_up" depart="604" />
    <vehicle id="right_217" type="typeWE" route="left" depart="605" />
    <vehicle id="down_218" type="typeWE" route="up" depart="606" color="1,0,0"/>
    <vehicle id="right_219" type="typeWE" route="left" depart="607" />
    <vehicle id="right_220" type="typeWE" route="right" depart="617" />
    <vehicle id="left_221" type="typeWE" route="left_up" depart="617" />
    <vehicle id="down_222" type="typeWE" route="up" depart="618" color="1,0,0"/>
    <vehicle id="up_223" type="typeWE" route="down" depart="620" color="1,0,0"/>
    <vehicle id="right_224" type="typeWE" route="right_down" depart="623" />
    <vehicle id="down_225" type="typeWE" route="up" depart="624" color="1,0,0"/>
    <vehicle id="right_226" type="typeWE" route="right_up" depart="626" />
    <vehicle id="right_227" type="typeWE" route="left_down" depart="627" />
    <vehicle id="right_228" type="typeWE" route="left_down" depart="628" />
    <vehicle id="right_229" type="typeWE" route="left" depart="633" />
    <vehicle id="right_230" type="typeWE" route="left" depart="634" />
    <vehicle id="right_231" type="typeWE" route="right_up" depart="635" />
    <vehicle id="down_232" type="typeWE" route="up" depart="637" color="1,0,0"/>
    <vehicle id="left_233" type="typeWE" route="left_up" depart="640" />
    <vehicle id="right_234" type="typeWE" route="right_up" depart="641" />
    <vehicle id="up_235" type="typeWE" route="down" depart="642" color="1,0,0"/>
    <vehicle id="right_236" type="typeWE" route="right" depart="651" />
    <vehicle id="right_237" type="typeWE" route="right_down" depart="656" />
    <vehicle id="right_238" type="typeWE" route="right" depart="658" />
    <vehicle id="right_239" type="typeWE" route="right" depart="659" />
    <vehicle id="right_240" type="typeWE" route="left" depart="661" />
    <vehicle id="down_241" type="typeWE" route="up" depart="661" color="1,0,0"/>
    <vehicle id="right_242" type="typeWE" route="right" depart="665" />
    <vehicle id="right_243" type="typeWE" route="right_down" depart="667" />
    <vehicle id="right_244" type="typeWE" route="right_up" depart="669" />
    <vehicle id="right_245" type="typeWE" route="right" depart="671" />
    <vehicle id="right_246" type="typeWE" route="left" depart="671" />
    <vehicle id="right_247" type="typeWE" route="left" depart="674" />
    <vehicle id="right_248" type="typeWE" route="left" depart="684" />
    <vehicle id="down_249" type="typeWE" route="up_left" depart="685" color="1,0,0"/>
    <vehicle id="down_250" type="typeWE" route="up" depart="686" color="1,0,0"/>
    <vehicle id="right_251" type="typeWE" route="left" depart="688" />
    <vehicle id="right_252" type="typeWE" route="left_down" depart="689" />
    <vehicle id="up_253" type="typeWE" route="down_right" depart="694" color="1,0,0"/>
    <vehicle id="left_254" type="typeWE" route="left_up" depart="697" />
    <vehicle id="up_255" type="typeWE" route="down" depart="702" color="1,0,0"/>
    <vehicle id="right_256" type="typeWE" route="right" depart="703" />
    <vehicle id="up_257" type="typeWE" route="down_right" depart="703" color="1,0,0"/>
    <vehicle id="right_258" type="typeWE" route="right" depart="709" />
    <vehicle id="right_259" type="typeWE" route="right" depart="714" />
    <vehicle id="left_260" type="typeWE" route="left_up" depart="717" />
    <vehicle id="right_261" type="typeWE" route="right" depart="719" />
    <vehicle id="right_262" type="typeWE" route="left_down" depart="723" />
    <vehicle id="up_263" type="typeWE" route="down_right" depart="726" color="1,0,0"/>
    <vehicle id="right_264" type="typeWE" route="right" depart="728" />
    <vehicle id="right_265" type="typeWE" route="right_down" depart="729" />
    <vehicle id="up_266" type="typeWE" route="down_right" depart="729" color="1,0,0"/>
    <vehicle id="right_267" type="typeWE" route="left" depart="738" />
    <vehicle id="down_268" type="typeWE" route="up" depart="738" color="1,0,0"/>
    <vehicle id="up_269" type="typeWE" route="down" depart="739" color="1,0,0"/>
    <vehicle id="right_270" type="typeWE" route="left_down" depart="743" />
    <vehicle id="down_271" type="typeWE" route="up" depart="745" color="1,0,0"/>
    <vehicle id="down_272" type="typeWE" route="up" depart="746" color="1,0,0"/>
    <vehicle id="right_273" type="typeWE" route="right" depart="748" />
    <vehicle id="right_274" type="typeWE" route="left_down" depart="748" />
    <vehicle id="left_275" type="typeWE" route="left_up" depart="749" />
    <vehicle id="up_276" type="typeWE" route="down_right" depart="749" color="1,0,0"/>
    <vehicle id="right_277" type="typeWE" route="right" depart="751" />
    <vehicle id="right_278" type="typeWE" route="left_down" depart="755" />
    <vehicle id="down_279" type="typeWE" route="up" depart="757" color="1,0,0"/>
    <vehicle id="right_280" type="typeWE" route="right_up" depart="759" />
    <vehicle id="right_281" type="typeWE" route="left_down" depart="762" />
    <vehicle id="right_282" type="typeWE" route="right_up" depart="764" />
    <vehicle id="right_283" type="typeWE" route="right_up" depart="765" />
    <vehicle id="up_284" type="typeWE" route="down_right" depart="765" color="1,0,0"/>
    <vehicle id="left_285" type="typeWE" route="left_up" depart="769" />
    <vehicle id="up_286" type="typeWE" route="down_right" depart="771" color="1,0,0"/>
    <vehicle id="right_287" type="typeWE" route="left_down" depart="773" />
    <vehicle id="right_288" type="typeWE" route="right_down" depart="775" />
    <vehicle id="right_289" type="typeWE" route="right_up" depart="776" />
    <vehicle id="up_290" type="typeWE" route="down" depart="780" color="1,0,0"/>
    <vehicle id="right_291" type="typeWE" route="right" depart="791" />
    <vehicle id="up_292" type="typeWE" route="down_right" depart="793" color="1,0,0"/>
    <vehicle id="right_293" type="typeWE" route="left_down" depart="796" />
    <vehicle id="up_294" type="typeWE" route="down_right" depart="800" color="1,0,0"/>
    <vehicle id="right_295" type="typeWE" route="right" depart="808" />
    <vehicle id="right_296" type="typeWE" route="left" depart="810" />
    <vehicle id="up_297" type="typeWE" route="down" depart="813" color="1,0,0"/>
    <vehicle id="right_298" type="typeWE" route="right_up" depart="818" />
    <vehicle id="up_299" type="typeWE" route="down_right" depart="819" color="1,0,0"/>
    <vehicle id="down_300" type="typeWE" route="up" depart="823" color="1,0,0"/>
    <vehicle id="down_301" type="typeWE" route="up" depart="825" color="1,0,0"/>
    <vehicle id="right_302" type="typeWE" route="right" depart="828" />
    <vehicle id="right_303" type="typeWE" route="left" depart="828" />
    <vehicle id="right_304" type="typeWE" route="right_down" depart="833" />
    <vehicle id="right_305" type="typeWE" route="right_down" depart="839" />
    <vehicle id="up_306" type="typeWE" route="down_right" depart="843" color="1,0,0"/>
    <vehicle id="right_307" type="typeWE" route="right_up" depart="849" />
    <vehicle id="left_308" type="typeWE" route="left_up" depart="858" />
    <vehicle id="up_309" type="typeWE" route="down" depart="859" color="1,0,0"/>
    <vehicle id="left_310" type="typeWE" route="left_up" depart="867" />
    <vehicle id="left_311" type="typeWE" route="left_up" depart="869" />
    <vehicle id="right_312" type="typeWE" route="left_down" depart="870" />
    <vehicle id="down_313" type="typeWE" route="up" depart="871" color="1,0,0"/>
    <vehicle id="right_314" type="typeWE" route="right_down" depart="877" />
    <vehicle id="right_315" type="typeWE" route="left" depart="878" />
    <vehicle id="up_316" type="typeWE" route="down" depart="878" color="1,0,0"/>
    <vehicle id="right_317" type="typeWE" route="right_up" depart="879" />
    <vehicle id="right_318" type="typeWE" route="right_up" depart="881" />
    <vehicle id="right_319" type="typeWE" route="right_down" depart="883" />
    <vehicle id="right_320" type="typeWE" route="right" depart="886" />
    <vehicle id="right_321" type="typeWE" route="right_down" depart="895" />
    <vehicle id="right_322" type="typeWE" route="right_down" depart="896" />
    <vehicle id="left_323" type="typeWE" route="left_up" depart="896" />
    <vehicle id="right_324" type="typeWE" route="right" depart="900" />
    <vehicle id="down_325" type="typeWE" route="up_left" depart="900" color="1,0,0"/>
    <vehicle id="right_326" type="typeWE" route="right_down" depart="901" />
    <vehicle id="right_327" type="typeWE" route="right_down" depart="903" />
    <vehicle id="left_328" type="typeWE" route="left_up" depart="906" />
    <vehicle id="up_329" type="typeWE" route="down_right" depart="910" color="1,0,0"/>
    <vehicle id="down_330" type="typeWE" route="up" depart="912" color="1,0,0"/>
    <vehicle id="right_331" type="typeWE" route="left" depart="913" />
    <vehicle id="right_332" type="typeWE" route="right" depart="918" />
    <vehicle id="right_333" type="typeWE" route="left" depart="919" />
    <vehicle id="right_334" type="typeWE" route="right" depart="922" />
    <vehicle id="up_335" type="typeWE" route="down_right" depart="924" color="1,0,0"/>
    <vehicle id="down_336" type="typeWE" route="up" depart="934" color="1,0,0"/>
    <vehicle id="right_337" type="typeWE" route="right_down" depart="937" />
    <vehicle id="up_338" type="typeWE" route="down" depart="946" color="1,0,0"/>
    <vehicle id="right_339" type="typeWE" route="right_down" depart="948" />
    <vehicle id="down_340" type="typeWE" route="up" depart="948" color="1,0,0"/>
    <vehicle id="right_341" type="typeWE" route="left_down" depart="949" />
    <vehicle id="up_342" type="typeWE" route="down" depart="951" color="1,0,0"/>
    <vehicle id="down_343" type="typeWE" route="up" depart="957" color="1,0,0"/>
    <vehicle id="down_344" type="typeWE" route="up" depart="958" color="1,0,0"/>
    <vehicle id="up_345" type="typeWE" route="down" depart="959" color="1,0,0"/>
    <vehicle id="right_346" type="typeWE" route="left" depart="960" />
    <vehicle id="down_347" type="typeWE" route="up_left" depart="966" color="1,0,0"/>
    <vehicle id="up_348" type="typeWE" route="down" depart="971" color="1,0,0"/>
    <vehicle id="right_349" type="typeWE" route="left_down" depart="973" />
    <vehicle id="right_350" type="typeWE" route="left" depart="974" />
    <vehicle id="right_351" type="typeWE" route="left" depart="976" />
    <vehicle id="right_352" type="typeWE" route="right" depart="978" />
    <vehicle id="left_353" type="typeWE" route="left_up" depart="979" />
    <vehicle id="right_354" type="typeWE" route="right" depart="981" />
    <vehicle id="down_355" type="typeWE" route="up" depart="981" color="1,0,0"/>
    <vehicle id="down_356" type="typeWE" route="up" depart="989" color="1,0,0"/>
    <vehicle id="up_357" type="typeWE" route="down" depart="990" color="1,0,0"/>
    <vehicle id="right_358" type="typeWE" route="left_down" depart="994" />
    <vehicle id="right_359" type="typeWE" route="left" depart="995" />
    <vehicle id="right_360" type="typeWE" route="right_up" depart="997" />
    <vehicle id="right_361" type="typeWE" route="left" depart="998" />
    <vehicle id="down_362" type="typeWE" route="up_left" depart="999" color="1,0,0"/>
    <vehicle id="right_363" type="typeWE" route="left" depart="1003" />
    <vehicle id="up_364" type="typeWE" route="down" depart="1012" color="1,0,0"/>
    <vehicle id="right_365" type="typeWE" route="left_down" depart="1014" />
    <vehicle id="left_366" type="typeWE" route="left_up" depart="1019" />
    <vehicle id="down_367" type="typeWE" route="up" depart="1021" color="1,0,0"/>
    <vehicle id="up_368" type="typeWE" route="down" depart="1022" color="1,0,0"/>
    <vehicle id="up_369" type="typeWE" route="down" depart="1023" color="1,0,0"/>
    <vehicle id="right_370" type="typeWE" route="left_down" depart="1026" />
    <vehicle id="right_371" type="typeWE" route="left" depart="1029" />
    <vehicle id="right_372" type="typeWE" route="left" depart="1031" />
    <vehicle id="up_373" type="typeWE" route="down" depart="1032" color="1,0,0"/>
    <vehicle id="right_374" type="typeWE" route="right" depart="1034" />
    <vehicle id="down_375" type="typeWE" route="up" depart="1034" color="1,0,0"/>
    <vehicle id="right_376" type="typeWE" route="right_up" depart="1035" />