<routes>
        <vType id="typeWE" accel="0.8" decel="4.5" sigma="0.5" length="5" minGap="2.5" maxSpeed="16.67" guiShape="passenger"/>
	<vType id="typeNS" accel="0.8" decel="4.5" sigma="0.5" length="5" minGap="2.5" maxSpeed="16.67" guiShape="passenger"/>
	<route id="left" edges="366845096#0 366845096#1 366845096#20 366845096#22 366845096#3 366845096#4 366845096#5"/>
	<route id="left_up" edges="366845096#0 366845096#1 366845096#20 366845096#22 -157076458#1 -157076458#0"/>
	<route id="left_down" edges="366845096#0 366845096#1 366845096#20 366845096#22 -26446721#2 -26446721#1 -26446721#0"/>
	<route id="right" edges="-366845096#5 -366845096#4 -366845096#30 -366845096#32 -366845096#2 -366845096#1 -366845096#0 "/>
	<route id="right_up" edges="-366845096#5 -366845096#4 -366845096#30 -366845096#32 -157076458#1 -157076458#0 "/>
	<route id="right_down" edges="-366845096#5 -366845096#4 -366845096#30 -366845096#32 -26446721#2 -26446721#1 -26446721#0"/>
	<route id="up" edges="157076458#0 157076458#1 -26446721#2 -26446721#1 -26446721#0"/>
	<route id="up_left" edges="157076458#0 157076458#1 -366845096#2 -366845096#1 -366845096#0"/>
	<route id="down" edges="26446721#0 26446721#1 26446721#2 -157076458#1 -157076458#0"/>
	<route id="down_right" edges="26446721#0 26446721#1 26446721#2 366845096#3 366845096#4 366845096#5"/>
    <vehicle id="right_0" type="typeWE" route="left_down" depart="0" />
    <vehicle id="down_1" type="typeWE" route="up_left" depart="1" color="1,0,0"/>
    <vehicle id="left_2" type="typeWE" route="left_up" depart="2" />
    <vehicle id="down_3" type="typeWE" route="up" depart="3" color="1,0,0"/>
    <vehicle id="up_4" type="typeWE" route="down" depart="5" color="1,0,0"/>
    <vehicle id="down_5" type="typeWE" route="up_left" depart="8" color="1,0,0"/>
    <vehicle id="down_6" type="typeWE" route="up_left" depart="9" color="1,0,0"/>
    <vehicle id="down_7" type="typeWE" route="up_left" depart="14" color="1,0,0"/>
    <vehicle id="down_8" type="typeWE" route="up_left" depart="19" color="1,0,0"/>
    <vehicle id="up_9" type="typeWE" route="down" depart="22" color="1,0,0"/>
    <vehicle id="down_10" type="typeWE" route="up" depart="23" color="1,0,0"/>
    <vehicle id="right_11" type="typeWE" route="right_up" depart="28" />
    <vehicle id="right_12" type="typeWE" route="left" depart="29" />
    <vehicle id="up_13" type="typeWE" route="down" depart="29" color="1,0,0"/>
    <vehicle id="down_14" type="typeWE" route="up" depart="29" color="1,0,0"/>
    <vehicle id="up_15" type="typeWE" route="down" depart="35" color="1,0,0"/>
    <vehicle id="up_16" type="typeWE" route="down_right" depart="36" color="1,0,0"/>
    <vehicle id="down_17" type="typeWE" route="up" depart="40" color="1,0,0"/>
    <vehicle id="right_18" type="typeWE" route="right" depart="44" />
    <vehicle id="right_19" type="typeWE" route="right" depart="46" />
    <vehicle id="down_20" type="typeWE" route="up" depart="49" color="1,0,0"/>
    <vehicle id="up_21" type="typeWE" route="down" depart="56" color="1,0,0"/>
    <vehicle id="up_22" type="typeWE" route="down" depart="60" color="1,0,0"/>
    <vehicle id="down_23" type="typeWE" route="up_left" depart="61" color="1,0,0"/>
    <vehicle id="up_24" type="typeWE" route="down" depart="64" color="1,0,0"/>
    <vehicle id="right_25" type="typeWE" route="right" depart="65" />
    <vehicle id="left_26" type="typeWE" route="left_up" depart="66" />
    <vehicle id="down_27" type="typeWE" route="up" depart="72" color="1,0,0"/>
    <vehicle id="down_28" type="typeWE" route="up" depart="74" color="1,0,0"/>
    <vehicle id="down_29" type="typeWE" route="up_left" depart="76" color="1,0,0"/>
    <vehicle id="up_30" type="typeWE" route="down" depart="80" color="1,0,0"/>
    <vehicle id="down_31" type="typeWE" route="up" depart="82" color="1,0,0"/>
    <vehicle id="right_32" type="typeWE" route="right" depart="89" />
    <vehicle id="up_33" type="typeWE" route="down" depart="91" color="1,0,0"/>
    <vehicle id="up_34" type="typeWE" route="down_right" depart="93" color="1,0,0"/>
    <vehicle id="right_35" type="typeWE" route="left" depart="96" />
    <vehicle id="up_36" type="typeWE" route="down" depart="96" color="1,0,0"/>
    <vehicle id="up_37" type="typeWE" route="down_right" depart="97" color="1,0,0"/>
    <vehicle id="up_38" type="typeWE" route="down_right" depart="103" color="1,0,0"/>
    <vehicle id="up_39" type="typeWE" route="down" depart="105" color="1,0,0"/>
    <vehicle id="right_40" type="typeWE" route="left" depart="108" />
    <vehicle id="down_41" type="typeWE" route="up" depart="110" color="1,0,0"/>
    <vehicle id="up_42" type="typeWE" route="down" depart="112" color="1,0,0"/>
    <vehicle id="right_43" type="typeWE" route="right_up" depart="113" />
    <vehicle id="up_44" type="typeWE" route="down" depart="113" color="1,0,0"/>
    <vehicle id="up_45" type="typeWE" route="down_right" depart="115" color="1,0,0"/>
    <vehicle id="right_46" type="typeWE" route="right_down" depart="118" />
    <vehicle id="up_47" type="typeWE" route="down" depart="120" color="1,0,0"/>
    <vehicle id="right_48" type="typeWE" route="left" depart="121" />
    <vehicle id="up_49" type="typeWE" route="down" depart="126" color="1,0,0"/>
    <vehicle id="up_50" type="typeWE" route="down" depart="130" color="1,0,0"/>
    <vehicle id="down_51" type="typeWE" route="up" depart="131" color="1,0,0"/>
    <vehicle id="down_52" type="typeWE" route="up" depart="133" color="1,0,0"/>
    <vehicle id="down_53" type="typeWE" route="up" depart="139" color="1,0,0"/>
    <vehicle id="right_54" type="typeWE" route="right" depart="143" />
    <vehicle id="right_55" type="typeWE" route="right" depart="146" />
    <vehicle id="down_56" type="typeWE" route="up" depart="146" color="1,0,0"/>
    <vehicle id="right_57" type="typeWE" route="right_down" depart="147" />
    <vehicle id="right_58" type="typeWE" route="left" depart="153" />
    <vehicle id="up_59" type="typeWE" route="down_right" depart="157" color="1,0,0"/>
    <vehicle id="down_60" type="typeWE" route="up" depart="158" color="1,0,0"/>
    <vehicle id="right_61" type="typeWE" route="left" depart="160" />
    <vehicle id="down_62" type="typeWE" route="up" depart="160" color="1,0,0"/>
    <vehicle id="up_63" type="typeWE" route="down" depart="162" color="1,0,0"/>
    <vehicle id="up_64" type="typeWE" route="down" depart="164" color="1,0,0"/>
    <vehicle id="down_65" type="typeWE" route="up" depart="173" color="1,0,0"/>
    <vehicle id="up_66" type="typeWE" route="down" depart="174" color="1,0,0"/>
    <vehicle id="down_67" type="typeWE" route="up" depart="183" color="1,0,0"/>
    <vehicle id="down_68" type="typeWE" route="up" depart="185" color="1,0,0"/>
    <vehicle id="down_69" type="typeWE" route="up_left" depart="191" color="1,0,0"/>
    <vehicle id="down_70" type="typeWE" route="up" depart="194" color="1,0,0"/>
    <vehicle id="down_71" type="typeWE" route="up" depart="196" color="1,0,0"/>
    <vehicle id="down_72" type="typeWE" route="up" depart="198" color="1,0,0"/>
    <vehicle id="right_73" type="typeWE" route="right" depart="205" />
    <vehicle id="down_74" type="typeWE" route="up_left" depart="209" color="1,0,0"/>
    <vehicle id="up_75" type="typeWE" route="down" depart="213" color="1,0,0"/>
    <vehicle id="right_76" type="typeWE" route="right" depart="216" />
    <vehicle id="up_77" type="typeWE" route="down_right" depart="217" color="1,0,0"/>
    <vehicle id="down_78" type="typeWE" route="up" depart="217" color="1,0,0"/>
    <vehicle id="down_79" type="typeWE" route="up" depart="218" color="1,0,0"/>
    <vehicle id="down_80" type="typeWE" route="up" depart="220" color="1,0,0"/>
    <vehicle id="right_81" type="typeWE" route="left" depart="224" />
    <vehicle id="down_82" type="typeWE" route="up" depart="226" color="1,0,0"/>
    <vehicle id="right_83" type="typeWE" route="right_up" depart="228" />
    <vehicle id="down_84" type="typeWE" route="up" depart="228" color="1,0,0"/>
    <vehicle id="up_85" type="typeWE" route="down" depart="230" color="1,0,0"/>
    <vehicle id="right_86" type="typeWE" route="right_down" depart="232" />
    <vehicle id="right_87" type="typeWE" route="left" depart="233" />
    <vehicle id="up_88" type="typeWE" route="down" depart="234" color="1,0,0"/>
    <vehicle id="right_89" type="typeWE" route="right" depart="235" />
    <vehicle id="right_90" type="typeWE" route="right" depart="236" />
    <vehicle id="down_91" type="typeWE" route="up_left" depart="237" color="1,0,0"/>
    <vehicle id="down_92" type="typeWE" route="up" depart="239" color="1,0,0"/>
    <vehicle id="up_93" type="typeWE" route="down" depart="242" color="1,0,0"/>
    <vehicle id="down_94" type="typeWE" route="up" depart="243" color="1,0,0"/>
    <vehicle id="right_95" type="typeWE" route="right" depart="252" />
    <vehicle id="up_96" type="typeWE" route="down" depart="253" color="1,0,0"/>
    <vehicle id="down_97" type="typeWE" route="up" depart="254" color="1,0,0"/>
    <vehicle id="down_98" type="typeWE" route="up_left" depart="256" color="1,0,0"/>
    <vehicle id="down_99" type="typeWE" route="up" depart="260" color="1,0,0"/>
    <vehicle id="right_100" type="typeWE" route="left_down" depart="261" />
    <vehicle id="right_101" type="typeWE" route="left_down" depart="262" />
    <vehicle id="down_102" type="typeWE" route="up" depart="263" color="1,0,0"/>
    <vehicle id="right_103" type="typeWE" route="right_down" depart="264" />
    <vehicle id="down_104" type="typeWE" route="up_left" depart="265" color="1,0,0"/>
    <vehicle id="up_105" type="typeWE" route="down" depart="276" color="1,0,0"/>
    <vehicle id="right_106" type="typeWE" route="left" depart="277" />
    <vehicle id="down_107" type="typeWE" route="up" depart="277" color="1,0,0"/>
    <vehicle id="down_108" type="typeWE" route="up_left" depart="281" color="1,0,0"/>
    <vehicle id="up_109" type="typeWE" route="down" depart="286" color="1,0,0"/>
    <vehicle id="up_110" type="typeWE" route="down" depart="295" color="1,0,0"/>
    <vehicle id="right_111" type="typeWE" route="left" depart="296" />
    <vehicle id="up_112" type="typeWE" route="down_right" depart="308" color="1,0,0"/>
    <vehicle id="down_113" type="typeWE" route="up" depart="309" color="1,0,0"/>
    <vehicle id="up_114" type="typeWE" route="down_right" depart="312" color="1,0,0"/>
    <vehicle id="down_115" type="typeWE" route="up" depart="314" color="1,0,0"/>
    <vehicle id="up_116" type="typeWE" route="down" depart="315" color="1,0,0"/>
    <vehicle id="right_117" type="typeWE" route="right_up" depart="316" />
    <vehicle id="down_118" type="typeWE" route="up" depart="317" color="1,0,0"/>
    <vehicle id="up_119" type="typeWE" route="down" depart="320" color="1,0,0"/>
    <vehicle id="right_120" type="typeWE" route="left" depart="322" />
    <vehicle id="right_121" type="typeWE" route="right_down" depart="325" />
    <vehicle id="right_122" type="typeWE" route="left" depart="325" />
    <vehicle id="down_123" type="typeWE" route="up" depart="327" color="1,0,0"/>
    <vehicle id="down_124" type="typeWE" route="up" depart="330" color="1,0,0"/>
    <vehicle id="down_125" type="typeWE" route="up" depart="331" color="1,0,0"/>
    <vehicle id="right_126" type="typeWE" route="left" depart="333" />
    <vehicle id="up_127" type="typeWE" route="down" depart="334" color="1,0,0"/>
    <vehicle id="up_128" type="typeWE" route="down_right" depart="336" color="1,0,0"/>
    <vehicle id="up_129" type="typeWE" route="down" depart="344" color="1,0,0"/>
    <vehicle id="up_130" type="typeWE" route="down" depart="345" color="1,0,0"/>
    <vehicle id="up_131" type="typeWE" route="down_right" depart="347" color="1,0,0"/>
    <vehicle id="right_132" type="typeWE" route="left" depart="348" />
    <vehicle id="left_133" type="typeWE" route="left_up" depart="354" />
    <vehicle id="up_134" type="typeWE" route="down_right" depart="360" color="1,0,0"/>
    <vehicle id="up_135" type="typeWE" route="down" depart="364" color="1,0,0"/>
    <vehicle id="up_136" type="typeWE" route="down_right" depart="368" color="1,0,0"/>
    <vehicle id="right_137" type="typeWE" route="right" depart="372" />
    <vehicle id="right_138" type="typeWE" route="right" depart="373" />
    <vehicle id="up_139" type="typeWE" route="down" depart="376" color="1,0,0"/>
    <vehicle id="down_140" type="typeWE" route="up" depart="377" color="1,0,0"/>
    <vehicle id="right_141" type="typeWE" route="right_down" depart="380" />
    <vehicle id="right_142" type="typeWE" route="left" depart="386" />
    <vehicle id="right_143" type="typeWE" route="left_down" depart="389" />
    <vehicle id="up_144" type="typeWE" route="down_right" depart="389" color="1,0,0"/>
    <vehicle id="up_145" type="typeWE" route="down_right" depart="391" color="1,0,0"/>
    <vehicle id="down_146" type="typeWE" route="up" depart="398" color="1,0,0"/>
    <vehicle id="down_147" type="typeWE" route="up" depart="404" color="1,0,0"/>
    <vehicle id="down_148" type="typeWE" route="up" depart="405" color="1,0,0"/>
    <vehicle id="up_149" type="typeWE" route="down" depart="408" color="1,0,0"/>
    <vehicle id="up_150" type="typeWE" route="down" depart="412" color="1,0,0"/>
    <vehicle id="down_151" type="typeWE" route="up" depart="412" color="1,0,0"/>
    <vehicle id="up_152" type="typeWE" route="down" depart="418" color="1,0,0"/>
    <vehicle id="right_153" type="typeWE" route="left" depart="421" />
    <vehicle id="up_154" type="typeWE" route="down_right" depart="421" color="1,0,0"/>
    <vehicle id="down_155" type="typeWE" route="up" depart="427" color="1,0,0"/>
    <vehicle id="down_156" type="typeWE" route="up" depart="428" color="1,0,0"/>
    <vehicle id="up_157" type="typeWE" route="down" depart="432" color="1,0,0"/>
    <vehicle id="right_158" type="typeWE" route="left_down" depart="434" />
    <vehicle id="up_159" type="typeWE" route="down" depart="435" color="1,0,0"/>
    <vehicle id="down_160" type="typeWE" route="up_left" depart="440" color="1,0,0"/>
    <vehicle id="up_161" type="typeWE" route="down" depart="443" color="1,0,0"/>
    <vehicle id="up_162" type="typeWE" route="down_right" depart="444" color="1,0,0"/>
    <vehicle id="down_163" type="typeWE" route="up_left" depart="444" color="1,0,0"/>
    <vehicle id="up_164" type="typeWE" route="down" depart="445" color="1,0,0"/>
    <vehicle id="down_165" type="typeWE" route="up" depart="446" color="1,0,0"/>
    <vehicle id="right_166" type="typeWE" route="right" depart="450" />
    <vehicle id="right_167" type="typeWE" route="right" depart="461" />
    <vehicle id="up_168" type="typeWE" route="down_right" depart="473" color="1,0,0"/>
    <vehicle id="down_169" type="typeWE" route="up" depart="475" color="1,0,0"/>
    <vehicle id="up_170" type="typeWE" route="down" depart="477" color="1,0,0"/>
    <vehicle id="down_171" type="typeWE" route="up" depart="477" color="1,0,0"/>
    <vehicle id="up_172" type="typeWE" route="down" depart="478" color="1,0,0"/>
    <vehicle id="up_173" type="typeWE" route="down_right" depart="479" color="1,0,0"/>
    <vehicle id="down_174" type="typeWE" route="up" depart="483" color="1,0,0"/>
    <vehicle id="left_175" type="typeWE" route="left_up" depart="484" />
    <vehicle id="up_176" type="typeWE" route="down_right" depart="486" color="1,0,0"/>
    <vehicle id="up_177" type="typeWE" route="down_right" depart="487" color="1,0,0"/>
    <vehicle id="up_178" type="typeWE" route="down" depart="488" color="1,0,0"/>
    <vehicle id="up_179" type="typeWE" route="down" depart="493" color="1,0,0"/>
    <vehicle id="right_180" type="typeWE" route="left" depart="495" />
    <vehicle id="up_181" type="typeWE" route="down_right" depart="499" color="1,0,0"/>
    <vehicle id="down_182" type="typeWE" route="up" depart="501" color="1,0,0"/>
    <vehicle id="up_183" type="typeWE" route="down" depart="503" color="1,0,0"/>
    <vehicle id="down_184" type="typeWE" route="up" depart="505" color="1,0,0"/>
    <vehicle id="up_185" type="typeWE" route="down_right" depart="506" color="1,0,0"/>
    <vehicle id="down_186" type="typeWE" route="up_left" depart="507" color="1,0,0"/>
    <vehicle id="up_187" type="typeWE" route="down" depart="522" color="1,0,0"/>
    <vehicle id="up_188" type="typeWE" route="down" depart="523" color="1,0,0"/>
    <vehicle id="right_189" type="typeWE" route="right" depart="525" />
    <vehicle id="up_190" type="typeWE" route="down_right" depart="527" color="1,0,0"/>
    <vehicle id="up_191" type="typeWE" route="down" depart="531" color="1,0,0"/>
    <vehicle id="right_192" type="typeWE" route="left_down" depart="535" />
    <vehicle id="up_193" type="typeWE" route="down_right" depart="542" color="1,0,0"/>
    <vehicle id="down_194" type="typeWE" route="up" depart="546" color="1,0,0"/>
    <vehicle id="right_195" type="typeWE" route="right_down" depart="547" />
    <vehicle id="up_196" type="typeWE" route="down" depart="549" color="1,0,0"/>
    <vehicle id="down_197" type="typeWE" route="up_left" depart="551" color="1,0,0"/>
    <vehicle id="right_198" type="typeWE" route="right" depart="553" />
    <vehicle id="up_199" type="typeWE" route="down" depart="553" color="1,0,0"/>
    <vehicle id="up_200" type="typeWE" route="down" depart="558" color="1,0,0"/>
    <vehicle id="down_201" type="typeWE" route="up" depart="567" color="1,0,0"/>
    <vehicle id="up_202" type="typeWE" route="down_right" depart="572" color="1,0,0"/>
    <vehicle id="right_203" type="typeWE" route="right_up" depart="574" />
    <vehicle id="up_204" type="typeWE" route="down" depart="578" color="1,0,0"/>
    <vehicle id="up_205" type="typeWE" route="down" depart="579" color="1,0,0"/>
    <vehicle id="down_206" type="typeWE" route="up" depart="580" color="1,0,0"/>
    <vehicle id="down_207" type="typeWE" route="up" depart="583" color="1,0,0"/>
    <vehicle id="down_208" type="typeWE" route="up_left" depart="585" color="1,0,0"/>
    <vehicle id="down_209" type="typeWE" route="up" depart="587" color="1,0,0"/>
    <vehicle id="down_210" type="typeWE" route="up" depart="590" color="1,0,0"/>
    <vehicle id="up_211" type="typeWE" route="down" depart="591" color="1,0,0"/>
    <vehicle id="right_212" type="typeWE" route="right_down" depart="595" />
    <vehicle id="up_213" type="typeWE" route="down_right" depart="595" color="1,0,0"/>
    <vehicle id="up_214" type="typeWE" route="down" depart="600" color="1,0,0"/>
    <vehicle id="left_215" type="typeWE" route="left_up" depart="601" />
    <vehicle id="up_216" type="typeWE" route="down" depart="606" color="1,0,0"/>
    <vehicle id="down_217" type="typeWE" route="up" depart="607" color="1,0,0"/>
    <vehicle id="up_218" type="typeWE" route="down" depart="610" color="1,0,0"/>
    <vehicle id="down_219" type="typeWE" route="up_left" depart="617" color="1,0,0"/>
    <vehicle id="down_220" type="typeWE" route="up" depart="620" color="1,0,0"/>
    <vehicle id="right_221" type="typeWE" route="left" depart="622" />
    <vehicle id="down_222" type="typeWE" route="up" depart="622" color="1,0,0"/>
    <vehicle id="up_223" type="typeWE" route="down" depart="623" color="1,0,0"/>
    <vehicle id="down_224" type="typeWE" route="up_left" depart="625" color="1,0,0"/>
    <vehicle id="up_225" type="typeWE" route="down" depart="626" color="1,0,0"/>
    <vehicle id="up_226" type="typeWE" route="down_right" depart="632" color="1,0,0"/>
    <vehicle id="up_227" type="typeWE" route="down" depart="633" color="1,0,0"/>
    <vehicle id="down_228" type="typeWE" route="up" depart="635" color="1,0,0"/>
    <vehicle id="up_229" type="typeWE" route="down" depart="637" color="1,0,0"/>
    <vehicle id="right_230" type="typeWE" route="right_down" depart="640" />
    <vehicle id="down_231" type="typeWE" route="up" depart="641" color="1,0,0"/>
    <vehicle id="right_232" type="typeWE" route="right_up" depart="643" />
    <vehicle id="right_233" type="typeWE" route="left_down" depart="644" />
    <vehicle id="right_234" type="typeWE" route="left_down" depart="645" />
    <vehicle id="right_235" type="typeWE" route="left" depart="650" />
    <vehicle id="up_236" type="typeWE" route="down" depart="652" color="1,0,0"/>
    <vehicle id="up_237" type="typeWE" route="down" depart="655" color="1,0,0"/>
    <vehicle id="right_238" type="typeWE" route="right_up" depart="659" />
    <vehicle id="up_239" type="typeWE" route="down" depart="660" color="1,0,0"/>
    <vehicle id="down_240" type="typeWE" route="up_left" depart="662" color="1,0,0"/>
    <vehicle id="down_241" type="typeWE" route="up" depart="668" color="1,0,0"/>
    <vehicle id="down_242" type="typeWE" route="up" depart="671" color="1,0,0"/>
    <vehicle id="down_243" type="typeWE" route="up_left" depart="673" color="1,0,0"/>
    <vehicle id="down_244" type="typeWE" route="up" depart="675" color="1,0,0"/>
    <vehicle id="down_245" type="typeWE" route="up" depart="679" color="1,0,0"/>
    <vehicle id="up_246" type="typeWE" route="down" depart="680" color="1,0,0"/>
    <vehicle id="up_247" type="typeWE" route="down_right" depart="681" color="1,0,0"/>
    <vehicle id="up_248" type="typeWE" route="down" depart="683" color="1,0,0"/>
    <vehicle id="down_249" type="typeWE" route="up_left" depart="685" color="1,0,0"/>
    <vehicle id="down_250" type="typeWE" route="up" depart="687" color="1,0,0"/>
    <vehicle id="right_251" type="typeWE" route="right" depart="690" />
    <vehicle id="down_252" type="typeWE" route="up" depart="693" color="1,0,0"/>
    <vehicle id="up_253" type="typeWE" route="down" depart="695" color="1,0,0"/>
    <vehicle id="down_254" type="typeWE" route="up_left" depart="703" color="1,0,0"/>
    <vehicle id="up_255" type="typeWE" route="down_right" depart="705" color="1,0,0"/>
    <vehicle id="up_256" type="typeWE" route="down" depart="706" color="1,0,0"/>
    <vehicle id="right_257" type="typeWE" route="right" depart="708" />
    <vehicle id="down_258" type="typeWE" route="up_left" depart="714" color="1,0,0"/>
    <vehicle id="up_259" type="typeWE" route="down_right" depart="717" color="1,0,0"/>
    <vehicle id="down_260" type="typeWE" route="up" depart="722" color="1,0,0"/>
    <vehicle id="right_261" type="typeWE" route="left" depart="723" />
    <vehicle id="down_262" type="typeWE" route="up_left" depart="723" color="1,0,0"/>
    <vehicle id="down_263" type="typeWE" route="up" depart="734" color="1,0,0"/>
    <vehicle id="up_264" type="typeWE" route="down" depart="743" color="1,0,0"/>
    <vehicle id="down_265" type="typeWE" route="up" depart="744" color="1,0,0"/>
    <vehicle id="right_266" type="typeWE" route="left" depart="748" />
    <vehicle id="up_267" type="typeWE" route="down" depart="749" color="1,0,0"/>
    <vehicle id="down_268" type="typeWE" route="up_left" depart="750" color="1,0,0"/>
    <vehicle id="right_269" type="typeWE" route="left" depart="751" />
    <vehicle id="down_270" type="typeWE" route="up" depart="759" color="1,0,0"/>
    <vehicle id="up_271" type="typeWE" route="down" depart="760" color="1,0,0"/>
    <vehicle id="right_272" type="typeWE" route="left" depart="761" />
    <vehicle id="down_273" type="typeWE" route="up" depart="764" color="1,0,0"/>
    <vehicle id="up_274" type="typeWE" route="down_right" depart="765" color="1,0,0"/>
    <vehicle id="right_275" type="typeWE" route="left_down" depart="767" />
    <vehicle id="right_276" type="typeWE" route="right" depart="768" />
    <vehicle id="down_277" type="typeWE" route="up_left" depart="769" color="1,0,0"/>
    <vehicle id="up_278" type="typeWE" route="down_right" depart="771" color="1,0,0"/>
    <vehicle id="up_279" type="typeWE" route="down" depart="772" color="1,0,0"/>
    <vehicle id="down_280" type="typeWE" route="up" depart="772" color="1,0,0"/>
    <vehicle id="up_281" type="typeWE" route="down" depart="774" color="1,0,0"/>
    <vehicle id="up_282" type="typeWE" route="down" depart="777" color="1,0,0"/>
    <vehicle id="down_283" type="typeWE" route="up" depart="779" color="1,0,0"/>
    <vehicle id="up_284" type="typeWE" route="down_right" depart="781" color="1,0,0"/>
    <vehicle id="up_285" type="typeWE" route="down" depart="784" color="1,0,0"/>
    <vehicle id="up_286" type="typeWE" route="down" depart="786" color="1,0,0"/>
    <vehicle id="down_287" type="typeWE" route="up" depart="787" color="1,0,0"/>
    <vehicle id="up_288" type="typeWE" route="down_right" depart="788" color="1,0,0"/>
    <vehicle id="down_289" type="typeWE" route="up" depart="790" color="1,0,0"/>
    <vehicle id="right_290" type="typeWE" route="right_down" depart="792" />
    <vehicle id="left_291" type="typeWE" route="left_up" depart="794" />
    <vehicle id="left_292" type="typeWE" route="left_up" depart="798" />
    <vehicle id="right_293" type="typeWE" route="left" depart="804" />
    <vehicle id="up_294" type="typeWE" route="down" depart="814" color="1,0,0"/>
    <vehicle id="left_295" type="typeWE" route="left_up" depart="817" />
    <vehicle id="right_296" type="typeWE" route="right_up" depart="820" />
    <vehicle id="right_297" type="typeWE" route="left" depart="824" />
    <vehicle id="up_298" type="typeWE" route="down" depart="831" color="1,0,0"/>
    <vehicle id="down_299" type="typeWE" route="up" depart="837" color="1,0,0"/>
    <vehicle id="right_300" type="typeWE" route="left_down" depart="842" />
    <vehicle id="down_301" type="typeWE" route="up_left" depart="843" color="1,0,0"/>
    <vehicle id="down_302" type="typeWE" route="up_left" depart="847" color="1,0,0"/>
    <vehicle id="right_303" type="typeWE" route="right" depart="850" />
    <vehicle id="up_304" type="typeWE" route="down" depart="851" color="1,0,0"/>
    <vehicle id="down_305" type="typeWE" route="up" depart="851" color="1,0,0"/>
    <vehicle id="up_306" type="typeWE" route="down_right" depart="857" color="1,0,0"/>
    <vehicle id="up_307" type="typeWE" route="down_right" depart="863" color="1,0,0"/>
    <vehicle id="right_308" type="typeWE" route="right_down" depart="868" />
    <vehicle id="up_309" type="typeWE" route="down" depart="873" color="1,0,0"/>
    <vehicle id="down_310" type="typeWE" route="up" depart="873" color="1,0,0"/>
    <vehicle id="down_311" type="typeWE" route="up_left" depart="882" color="1,0,0"/>
    <vehicle id="right_312" type="typeWE" route="right" depart="884" />
    <vehicle id="up_313" type="typeWE" route="down_right" depart="891" color="1,0,0"/>
    <vehicle id="up_314" type="typeWE" route="down_right" depart="893" color="1,0,0"/>
    <vehicle id="up_315" type="typeWE" route="down" depart="894" color="1,0,0"/>
    <vehicle id="down_316" type="typeWE" route="up_left" depart="894" color="1,0,0"/>
    <vehicle id="right_317" type="typeWE" route="right" depart="896" />
    <vehicle id="up_318" type="typeWE" route="down" depart="896" color="1,0,0"/>
    <vehicle id="down_319" type="typeWE" route="up_left" depart="900" color="1,0,0"/>
    <vehicle id="down_320" type="typeWE" route="up" depart="902" color="1,0,0"/>
    <vehicle id="down_321" type="typeWE" route="up" depart="905" color="1,0,0"/>
    <vehicle id="right_322" type="typeWE" route="left" depart="911" />
    <vehicle id="left_323" type="typeWE" route="left_up" depart="920" />
    <vehicle id="down_324" type="typeWE" route="up_left" depart="921" color="1,0,0"/>
    <vehicle id="up_325" type="typeWE" route="down" depart="925" color="1,0,0"/>
    <vehicle id="up_326" type="typeWE" route="down_right" depart="926" color="1,0,0"/>
    <vehicle id="down_327" type="typeWE" route="up_left" depart="926" color="1,0,0"/>
    <vehicle id="down_328" type="typeWE" route="up_left" depart="928" color="1,0,0"/>
    <vehicle id="up_329" type="typeWE" route="down_right" depart="936" color="1,0,0"/>
    <vehicle id="down_330" type="typeWE" route="up" depart="936" color="1,0,0"/>
    <vehicle id="up_331" type="typeWE" route="down" depart="938" color="1,0,0"/>
    <vehicle id="down_332" type="typeWE" route="up" depart="939" color="1,0,0"/>
    <vehicle id="down_333" type="typeWE" route="up" depart="945" color="1,0,0"/>
    <vehicle id="down_334" type="typeWE" route="up" depart="948" color="1,0,0"/>
    <vehicle id="up_335" type="typeWE" route="down_right" depart="951" color="1,0,0"/>
    <vehicle id="up_336" type="typeWE" route="down_right" depart="956" color="1,0,0"/>
    <vehicle id="up_337" type="typeWE" route="down" depart="961" color="1,0,0"/>
    <vehicle id="down_338" type="typeWE" route="up_left" depart="963" color="1,0,0"/>
    <vehicle id="up_339" type="typeWE" route="down_right" depart="969" color="1,0,0"/>
    <vehicle id="right_340" type="typeWE" route="right" depart="973" />
    <vehicle id="down_341" type="typeWE" route="up_left" depart="973" color="1,0,0"/>
    <vehicle id="right_342" type="typeWE" route="right" depart="975" />
    <vehicle id="right_343" type="typeWE" route="right" depart="978" />
    <vehicle id="right_344" type="typeWE" route="right" depart="984" />
    <vehicle id="down_345" type="typeWE" route="up" depart="984" color="1,0,0"/>
    <vehicle id="up_346" type="typeWE" route="down" depart="985" color="1,0,0"/>
    <vehicle id="right_347" type="typeWE" route="left" depart="986" />
    <vehicle id="down_348" type="typeWE" route="up_left" depart="992" color="1,0,0"/>
    <vehicle id="up_349" type="typeWE" route="down_right" depart="993" color="1,0,0"/>
    <vehicle id="right_350" type="typeWE" route="left_down" depart="997" />
    <vehicle id="down_351" type="typeWE" route="up" depart="998" color="1,0,0"/>
    <vehicle id="right_352" type="typeWE" route="right" depart="1000" />
    <vehicle id="right_353" type="typeWE" route="right" depart="1002" />
    <vehicle id="down_354" type="typeWE" route="up" depart="1003" color="1,0,0"/>
    <vehicle id="down_355" type="typeWE" route="up" depart="1004" color="1,0,0"/>
    <vehicle id="right_356" type="typeWE" route="right_down" depart="1005" />
    <vehicle id="down_357" type="typeWE" route="up" depart="1006" color="1,0,0"/>
    <vehicle id="down_358" type="typeWE" route="up" depart="1007" color="1,0,0"/>