<routes>
        <vType id="typeWE" accel="0.8" decel="4.5" sigma="0.5" length="5" minGap="2.5" maxSpeed="50.00" guiShape="passenger"/>
	<vType id="typeNS" accel="0.8" decel="4.5" sigma="0.5" length="5" minGap="2.5" maxSpeed="50.00" guiShape="passenger"/>
	<route id="left" edges="366845096#0 366845096#1 366845096#20 366845096#22 366845096#3 366845096#4 366845096#5"/>
	<route id="left_up" edges="366845096#0 366845096#1 366845096#20 366845096#22 -157076458#1 -157076458#0"/>
	<route id="left_down" edges="366845096#0 366845096#1 366845096#20 366845096#22 -26446721#2 -26446721#1 -26446721#0"/>
	<route id="right" edges="-366845096#5 -366845096#4 -366845096#30 -366845096#32 -366845096#2 -366845096#1 -366845096#0 "/>
	<route id="right_up" edges="-366845096#5 -366845096#4 -366845096#30 -366845096#32 -157076458#1 -157076458#0 "/>
	<route id="right_down" edges="-366845096#5 -366845096#4 -366845096#30 -366845096#32 -26446721#2 -26446721#1 -26446721#0"/>
	<route id="up" edges="157076458#0 157076458#1 -26446721#2 -26446721#1 -26446721#0"/>
	<route id="up_left" edges="157076458#0 157076458#1 -366845096#2 -366845096#1 -366845096#0"/>
        <route id="up_right" edges="157076458#0 157076458#1 366845096#3 366845096#4 366845096#5"/>
	<route id="down" edges="26446721#0 26446721#1 26446721#2 -157076458#1 -157076458#0"/>
        <route id="down_left" edges="26446721#0 26446721#1 26446721#2 -366845096#2 -366845096#1 -366845096#0"/>
	<route id="down_right" edges="26446721#0 26446721#1 26446721#2 366845096#3 366845096#4 366845096#5"/>
<vehicle id="down_left_0" type="typeWE" route="down_left" depart="10" />
<vehicle id="right_1" type="typeWE" route="right" depart="10" />
<vehicle id="left_2" type="typeWE" route="left" depart="18" />
<vehicle id="down_3" type="typeWE" route="down" depart="22" />
<vehicle id="up_4" type="typeWE" route="up" depart="24" />
<vehicle id="left_5" type="typeWE" route="left" depart="30" />
<vehicle id="right_up_6" type="typeWE" route="right_up" depart="32" />
<vehicle id="up_left_7" type="typeWE" route="up_left" depart="57" />
<vehicle id="left_8" type="typeWE" route="left" depart="59" />
<vehicle id="left_9" type="typeWE" route="left" depart="60" />
<vehicle id="right_10" type="typeWE" route="right" depart="70" />
<vehicle id="left_11" type="typeWE" route="left" depart="75" />
<vehicle id="left_12" type="typeWE" route="left" depart="79" />
<vehicle id="right_13" type="typeWE" route="right" depart="80" />
<vehicle id="right_14" type="typeWE" route="right" depart="82" />
<vehicle id="left_up_15" type="typeWE" route="left_up" depart="85" />
<vehicle id="up_16" type="typeWE" route="up" depart="86" />
<vehicle id="right_17" type="typeWE" route="right" depart="87" />
<vehicle id="left_18" type="typeWE" route="left" depart="88" />
<vehicle id="right_19" type="typeWE" route="right" depart="90" />
<vehicle id="down_20" type="typeWE" route="down" depart="94" />
<vehicle id="right_21" type="typeWE" route="right" depart="94" />
<vehicle id="left_22" type="typeWE" route="left" depart="98" />
<vehicle id="left_23" type="typeWE" route="left" depart="103" />
<vehicle id="left_24" type="typeWE" route="left" depart="106" />
<vehicle id="right_25" type="typeWE" route="right" depart="114" />
<vehicle id="right_26" type="typeWE" route="right" depart="115" />
<vehicle id="left_27" type="typeWE" route="left" depart="129" />
<vehicle id="up_28" type="typeWE" route="up" depart="156" />
<vehicle id="down_29" type="typeWE" route="down" depart="163" />
<vehicle id="left_30" type="typeWE" route="left" depart="176" />
<vehicle id="down_31" type="typeWE" route="down" depart="179" />
<vehicle id="up_32" type="typeWE" route="up" depart="194" />
<vehicle id="right_33" type="typeWE" route="right" depart="197" />
<vehicle id="left_34" type="typeWE" route="left" depart="198" />
<vehicle id="up_35" type="typeWE" route="up" depart="202" />
<vehicle id="left_36" type="typeWE" route="left" depart="209" />
<vehicle id="right_37" type="typeWE" route="right" depart="211" />
<vehicle id="left_down_38" type="typeWE" route="left_down" depart="213" />
<vehicle id="right_39" type="typeWE" route="right" depart="223" />
<vehicle id="right_40" type="typeWE" route="right" depart="227" />
<vehicle id="left_down_41" type="typeWE" route="left_down" depart="229" />
<vehicle id="right_42" type="typeWE" route="right" depart="233" />
<vehicle id="down_43" type="typeWE" route="down" depart="235" />
<vehicle id="left_44" type="typeWE" route="left" depart="243" />
<vehicle id="right_45" type="typeWE" route="right" depart="248" />
<vehicle id="up_46" type="typeWE" route="up" depart="249" />
<vehicle id="up_right_47" type="typeWE" route="up_right" depart="276" />
<vehicle id="down_48" type="typeWE" route="down" depart="277" />
<vehicle id="right_up_49" type="typeWE" route="right_up" depart="283" />
<vehicle id="right_50" type="typeWE" route="right" depart="290" />
<vehicle id="up_right_51" type="typeWE" route="up_right" depart="293" />
<vehicle id="right_52" type="typeWE" route="right" depart="293" />
<vehicle id="right_53" type="typeWE" route="right" depart="310" />
<vehicle id="left_54" type="typeWE" route="left" depart="311" />
<vehicle id="right_down_55" type="typeWE" route="right_down" depart="316" />
<vehicle id="down_left_56" type="typeWE" route="down_left" depart="320" />
<vehicle id="left_57" type="typeWE" route="left" depart="339" />
<vehicle id="right_58" type="typeWE" route="right" depart="339" />
<vehicle id="right_down_59" type="typeWE" route="right_down" depart="341" />
<vehicle id="left_60" type="typeWE" route="left" depart="349" />
<vehicle id="left_61" type="typeWE" route="left" depart="350" />
<vehicle id="right_62" type="typeWE" route="right" depart="358" />
<vehicle id="left_up_63" type="typeWE" route="left_up" depart="362" />
<vehicle id="right_64" type="typeWE" route="right" depart="362" />
<vehicle id="right_65" type="typeWE" route="right" depart="365" />
<vehicle id="right_66" type="typeWE" route="right" depart="370" />
<vehicle id="right_down_67" type="typeWE" route="right_down" depart="374" />
<vehicle id="right_68" type="typeWE" route="right" depart="378" />
<vehicle id="up_69" type="typeWE" route="up" depart="392" />
<vehicle id="up_70" type="typeWE" route="up" depart="394" />
<vehicle id="left_71" type="typeWE" route="left" depart="394" />
<vehicle id="up_72" type="typeWE" route="up" depart="403" />
<vehicle id="left_73" type="typeWE" route="left" depart="403" />
<vehicle id="down_74" type="typeWE" route="down" depart="411" />
<vehicle id="down_75" type="typeWE" route="down" depart="417" />
<vehicle id="right_76" type="typeWE" route="right" depart="418" />
<vehicle id="left_77" type="typeWE" route="left" depart="421" />
<vehicle id="left_78" type="typeWE" route="left" depart="423" />
<vehicle id="up_79" type="typeWE" route="up" depart="425" />
<vehicle id="left_80" type="typeWE" route="left" depart="425" />
<vehicle id="right_81" type="typeWE" route="right" depart="426" />
<vehicle id="left_82" type="typeWE" route="left" depart="434" />
<vehicle id="left_83" type="typeWE" route="left" depart="435" />
<vehicle id="left_84" type="typeWE" route="left" depart="437" />
<vehicle id="left_85" type="typeWE" route="left" depart="439" />
<vehicle id="left_86" type="typeWE" route="left" depart="443" />
<vehicle id="down_left_87" type="typeWE" route="down_left" depart="458" />
<vehicle id="right_88" type="typeWE" route="right" depart="459" />
<vehicle id="left_89" type="typeWE" route="left" depart="466" />
<vehicle id="left_90" type="typeWE" route="left" depart="468" />
<vehicle id="left_91" type="typeWE" route="left" depart="476" />
<vehicle id="left_92" type="typeWE" route="left" depart="483" />
<vehicle id="right_93" type="typeWE" route="right" depart="489" />
<vehicle id="right_94" type="typeWE" route="right" depart="491" />
<vehicle id="left_95" type="typeWE" route="left" depart="496" />
<vehicle id="down_right_96" type="typeWE" route="down_right" depart="497" />
<vehicle id="right_97" type="typeWE" route="right" depart="514" />
<vehicle id="left_98" type="typeWE" route="left" depart="528" />
<vehicle id="right_99" type="typeWE" route="right" depart="544" />
<vehicle id="left_100" type="typeWE" route="left" depart="545" />
<vehicle id="left_101" type="typeWE" route="left" depart="551" />
<vehicle id="left_102" type="typeWE" route="left" depart="553" />
<vehicle id="right_103" type="typeWE" route="right" depart="553" />
<vehicle id="left_104" type="typeWE" route="left" depart="562" />
<vehicle id="right_105" type="typeWE" route="right" depart="563" />
<vehicle id="right_106" type="typeWE" route="right" depart="564" />
<vehicle id="left_107" type="typeWE" route="left" depart="570" />
<vehicle id="up_108" type="typeWE" route="up" depart="576" />
<vehicle id="up_109" type="typeWE" route="up" depart="578" />
<vehicle id="right_110" type="typeWE" route="right" depart="592" />
<vehicle id="left_111" type="typeWE" route="left" depart="595" />
<vehicle id="right_up_112" type="typeWE" route="right_up" depart="597" />
<vehicle id="down_right_113" type="typeWE" route="down_right" depart="598" />
<vehicle id="down_right_114" type="typeWE" route="down_right" depart="601" />
<vehicle id="up_115" type="typeWE" route="up" depart="603" />
<vehicle id="right_116" type="typeWE" route="right" depart="605" />
<vehicle id="left_up_117" type="typeWE" route="left_up" depart="608" />
<vehicle id="right_118" type="typeWE" route="right" depart="612" />
<vehicle id="right_119" type="typeWE" route="right" depart="614" />
<vehicle id="right_120" type="typeWE" route="right" depart="615" />
<vehicle id="up_121" type="typeWE" route="up" depart="618" />
<vehicle id="right_122" type="typeWE" route="right" depart="619" />
<vehicle id="right_123" type="typeWE" route="right" depart="622" />
<vehicle id="right_124" type="typeWE" route="right" depart="635" />
<vehicle id="right_125" type="typeWE" route="right" depart="637" />
<vehicle id="left_126" type="typeWE" route="left" depart="642" />
<vehicle id="left_127" type="typeWE" route="left" depart="645" />
<vehicle id="right_down_128" type="typeWE" route="right_down" depart="645" />
<vehicle id="right_129" type="typeWE" route="right" depart="648" />
<vehicle id="right_down_130" type="typeWE" route="right_down" depart="654" />
<vehicle id="right_131" type="typeWE" route="right" depart="654" />
<vehicle id="up_132" type="typeWE" route="up" depart="665" />
<vehicle id="right_133" type="typeWE" route="right" depart="667" />
<vehicle id="left_up_134" type="typeWE" route="left_up" depart="668" />
<vehicle id="left_135" type="typeWE" route="left" depart="671" />
<vehicle id="down_left_136" type="typeWE" route="down_left" depart="678" />
<vehicle id="right_137" type="typeWE" route="right" depart="681" />
<vehicle id="right_138" type="typeWE" route="right" depart="684" />
<vehicle id="down_left_139" type="typeWE" route="down_left" depart="692" />
<vehicle id="right_140" type="typeWE" route="right" depart="696" />
<vehicle id="right_141" type="typeWE" route="right" depart="707" />
<vehicle id="right_142" type="typeWE" route="right" depart="714" />
<vehicle id="left_143" type="typeWE" route="left" depart="716" />
<vehicle id="down_right_144" type="typeWE" route="down_right" depart="725" />
<vehicle id="left_145" type="typeWE" route="left" depart="729" />
<vehicle id="right_146" type="typeWE" route="right" depart="730" />
<vehicle id="left_up_147" type="typeWE" route="left_up" depart="736" />
<vehicle id="right_down_148" type="typeWE" route="right_down" depart="739" />
<vehicle id="right_149" type="typeWE" route="right" depart="739" />
<vehicle id="left_150" type="typeWE" route="left" depart="741" />
<vehicle id="right_151" type="typeWE" route="right" depart="743" />
<vehicle id="up_152" type="typeWE" route="up" depart="744" />
<vehicle id="down_153" type="typeWE" route="down" depart="756" />
<vehicle id="right_down_154" type="typeWE" route="right_down" depart="763" />
<vehicle id="up_155" type="typeWE" route="up" depart="765" />
<vehicle id="right_down_156" type="typeWE" route="right_down" depart="769" />
<vehicle id="right_157" type="typeWE" route="right" depart="773" />
<vehicle id="right_158" type="typeWE" route="right" depart="776" />
<vehicle id="right_159" type="typeWE" route="right" depart="778" />
<vehicle id="left_160" type="typeWE" route="left" depart="782" />
<vehicle id="down_161" type="typeWE" route="down" depart="789" />
<vehicle id="left_162" type="typeWE" route="left" depart="793" />
<vehicle id="left_163" type="typeWE" route="left" depart="798" />
<vehicle id="up_164" type="typeWE" route="up" depart="801" />
<vehicle id="left_165" type="typeWE" route="left" depart="803" />
<vehicle id="right_166" type="typeWE" route="right" depart="806" />
<vehicle id="left_167" type="typeWE" route="left" depart="808" />
<vehicle id="right_168" type="typeWE" route="right" depart="808" />
<vehicle id="down_right_169" type="typeWE" route="down_right" depart="809" />
<vehicle id="right_down_170" type="typeWE" route="right_down" depart="814" />
<vehicle id="down_171" type="typeWE" route="down" depart="817" />
<vehicle id="right_172" type="typeWE" route="right" depart="825" />
<vehicle id="left_173" type="typeWE" route="left" depart="829" />
<vehicle id="left_174" type="typeWE" route="left" depart="833" />
<vehicle id="left_175" type="typeWE" route="left" depart="842" />
<vehicle id="left_176" type="typeWE" route="left" depart="849" />
<vehicle id="left_177" type="typeWE" route="left" depart="854" />
<vehicle id="right_178" type="typeWE" route="right" depart="858" />
<vehicle id="right_down_179" type="typeWE" route="right_down" depart="865" />
<vehicle id="right_180" type="typeWE" route="right" depart="865" />
<vehicle id="left_up_181" type="typeWE" route="left_up" depart="870" />
<vehicle id="right_182" type="typeWE" route="right" depart="877" />
<vehicle id="right_183" type="typeWE" route="right" depart="881" />
<vehicle id="left_184" type="typeWE" route="left" depart="886" />
<vehicle id="right_185" type="typeWE" route="right" depart="893" />
<vehicle id="left_up_186" type="typeWE" route="left_up" depart="897" />
<vehicle id="left_187" type="typeWE" route="left" depart="899" />
<vehicle id="up_right_188" type="typeWE" route="up_right" depart="903" />
<vehicle id="right_189" type="typeWE" route="right" depart="906" />
<vehicle id="left_up_190" type="typeWE" route="left_up" depart="909" />
<vehicle id="left_up_191" type="typeWE" route="left_up" depart="913" />
<vehicle id="up_192" type="typeWE" route="up" depart="919" />
<vehicle id="right_193" type="typeWE" route="right" depart="921" />
<vehicle id="right_194" type="typeWE" route="right" depart="925" />
<vehicle id="right_195" type="typeWE" route="right" depart="928" />
<vehicle id="left_196" type="typeWE" route="left" depart="930" />
<vehicle id="left_197" type="typeWE" route="left" depart="931" />
<vehicle id="right_198" type="typeWE" route="right" depart="939" />
<vehicle id="left_199" type="typeWE" route="left" depart="945" />
<vehicle id="right_200" type="typeWE" route="right" depart="949" />
<vehicle id="left_201" type="typeWE" route="left" depart="953" />
<vehicle id="left_202" type="typeWE" route="left" depart="959" />
<vehicle id="right_203" type="typeWE" route="right" depart="963" />
<vehicle id="up_204" type="typeWE" route="up" depart="966" />
<vehicle id="right_205" type="typeWE" route="right" depart="970" />
<vehicle id="right_206" type="typeWE" route="right" depart="974" />
<vehicle id="left_207" type="typeWE" route="left" depart="988" />
<vehicle id="down_208" type="typeWE" route="down" depart="991" />
<vehicle id="right_209" type="typeWE" route="right" depart="994" />
<vehicle id="left_210" type="typeWE" route="left" depart="1007" />
<vehicle id="down_right_211" type="typeWE" route="down_right" depart="1019" />
<vehicle id="down_right_212" type="typeWE" route="down_right" depart="1029" />
<vehicle id="up_213" type="typeWE" route="up" depart="1047" />
<vehicle id="left_214" type="typeWE" route="left" depart="1053" />
<vehicle id="right_215" type="typeWE" route="right" depart="1054" />
<vehicle id="down_left_216" type="typeWE" route="down_left" depart="1059" />
<vehicle id="right_down_217" type="typeWE" route="right_down" depart="1060" />
<vehicle id="right_218" type="typeWE" route="right" depart="1062" />
<vehicle id="left_219" type="typeWE" route="left" depart="1063" />
<vehicle id="right_220" type="typeWE" route="right" depart="1066" />
<vehicle id="right_221" type="typeWE" route="right" depart="1068" />
<vehicle id="right_222" type="typeWE" route="right" depart="1079" />
<vehicle id="up_right_223" type="typeWE" route="up_right" depart="1089" />
<vehicle id="left_up_224" type="typeWE" route="left_up" depart="1089" />
<vehicle id="up_225" type="typeWE" route="up" depart="1093" />
<vehicle id="up_226" type="typeWE" route="up" depart="1101" />
<vehicle id="right_227" type="typeWE" route="right" depart="1108" />
<vehicle id="left_228" type="typeWE" route="left" depart="1113" />
<vehicle id="right_229" type="typeWE" route="right" depart="1124" />
<vehicle id="up_230" type="typeWE" route="up" depart="1139" />
<vehicle id="left_231" type="typeWE" route="left" depart="1139" />
<vehicle id="right_232" type="typeWE" route="right" depart="1140" />
<vehicle id="up_right_233" type="typeWE" route="up_right" depart="1141" />
<vehicle id="down_234" type="typeWE" route="down" depart="1144" />
<vehicle id="right_235" type="typeWE" route="right" depart="1149" />
<vehicle id="right_up_236" type="typeWE" route="right_up" depart="1150" />
<vehicle id="right_237" type="typeWE" route="right" depart="1150" />
<vehicle id="right_238" type="typeWE" route="right" depart="1157" />
<vehicle id="left_down_239" type="typeWE" route="left_down" depart="1158" />
<vehicle id="left_240" type="typeWE" route="left" depart="1164" />
<vehicle id="right_241" type="typeWE" route="right" depart="1164" />
<vehicle id="down_242" type="typeWE" route="down" depart="1166" />
<vehicle id="up_left_243" type="typeWE" route="up_left" depart="1168" />
<vehicle id="left_244" type="typeWE" route="left" depart="1171" />
<vehicle id="left_245" type="typeWE" route="left" depart="1175" />
<vehicle id="up_left_246" type="typeWE" route="up_left" depart="1176" />
<vehicle id="left_247" type="typeWE" route="left" depart="1180" />
<vehicle id="right_up_248" type="typeWE" route="right_up" depart="1180" />
<vehicle id="left_up_249" type="typeWE" route="left_up" depart="1189" />
<vehicle id="right_down_250" type="typeWE" route="right_down" depart="1199" />
<vehicle id="down_right_251" type="typeWE" route="down_right" depart="1200" />
<vehicle id="up_right_252" type="typeWE" route="up_right" depart="1206" />
<vehicle id="right_253" type="typeWE" route="right" depart="1208" />
<vehicle id="right_254" type="typeWE" route="right" depart="1215" />
<vehicle id="left_255" type="typeWE" route="left" depart="1219" />
<vehicle id="right_up_256" type="typeWE" route="right_up" depart="1219" />
<vehicle id="left_down_257" type="typeWE" route="left_down" depart="1223" />
<vehicle id="right_258" type="typeWE" route="right" depart="1229" />
<vehicle id="right_259" type="typeWE" route="right" depart="1233" />
<vehicle id="left_260" type="typeWE" route="left" depart="1235" />
<vehicle id="right_261" type="typeWE" route="right" depart="1239" />
<vehicle id="down_right_262" type="typeWE" route="down_right" depart="1251" />
<vehicle id="right_263" type="typeWE" route="right" depart="1251" />
<vehicle id="up_264" type="typeWE" route="up" depart="1255" />
<vehicle id="right_265" type="typeWE" route="right" depart="1263" />
<vehicle id="left_up_266" type="typeWE" route="left_up" depart="1269" />
<vehicle id="down_267" type="typeWE" route="down" depart="1270" />
<vehicle id="down_268" type="typeWE" route="down" depart="1272" />
<vehicle id="left_269" type="typeWE" route="left" depart="1272" />
<vehicle id="left_270" type="typeWE" route="left" depart="1277" />
<vehicle id="right_271" type="typeWE" route="right" depart="1287" />
<vehicle id="right_272" type="typeWE" route="right" depart="1289" />
<vehicle id="left_273" type="typeWE" route="left" depart="1292" />
<vehicle id="right_274" type="typeWE" route="right" depart="1295" />
<vehicle id="left_up_275" type="typeWE" route="left_up" depart="1297" />
<vehicle id="right_276" type="typeWE" route="right" depart="1305" />
<vehicle id="left_277" type="typeWE" route="left" depart="1310" />
<vehicle id="left_up_278" type="typeWE" route="left_up" depart="1312" />
<vehicle id="right_279" type="typeWE" route="right" depart="1323" />
<vehicle id="left_up_280" type="typeWE" route="left_up" depart="1329" />
<vehicle id="left_281" type="typeWE" route="left" depart="1332" />
<vehicle id="up_282" type="typeWE" route="up" depart="1333" />
<vehicle id="left_283" type="typeWE" route="left" depart="1335" />
<vehicle id="right_284" type="typeWE" route="right" depart="1336" />
<vehicle id="right_285" type="typeWE" route="right" depart="1341" />
<vehicle id="right_286" type="typeWE" route="right" depart="1351" />
<vehicle id="left_287" type="typeWE" route="left" depart="1353" />
<vehicle id="left_288" type="typeWE" route="left" depart="1361" />
<vehicle id="right_289" type="typeWE" route="right" depart="1362" />
<vehicle id="right_290" type="typeWE" route="right" depart="1367" />
<vehicle id="left_291" type="typeWE" route="left" depart="1369" />
<vehicle id="right_292" type="typeWE" route="right" depart="1375" />
<vehicle id="right_293" type="typeWE" route="right" depart="1384" />
<vehicle id="down_294" type="typeWE" route="down" depart="1390" />
<vehicle id="down_295" type="typeWE" route="down" depart="1400" />
<vehicle id="up_296" type="typeWE" route="up" depart="1404" />
<vehicle id="left_297" type="typeWE" route="left" depart="1413" />
<vehicle id="right_298" type="typeWE" route="right" depart="1413" />
<vehicle id="left_299" type="typeWE" route="left" depart="1414" />
<vehicle id="up_300" type="typeWE" route="up" depart="1418" />
<vehicle id="left_301" type="typeWE" route="left" depart="1418" />
<vehicle id="right_302" type="typeWE" route="right" depart="1418" />
<vehicle id="down_303" type="typeWE" route="down" depart="1423" />
<vehicle id="right_304" type="typeWE" route="right" depart="1424" />
<vehicle id="up_left_305" type="typeWE" route="up_left" depart="1430" />
<vehicle id="left_306" type="typeWE" route="left" depart="1434" />
<vehicle id="up_307" type="typeWE" route="up" depart="1445" />
<vehicle id="left_308" type="typeWE" route="left" depart="1452" />
<vehicle id="left_309" type="typeWE" route="left" depart="1461" />
<vehicle id="down_310" type="typeWE" route="down" depart="1466" />
<vehicle id="up_right_311" type="typeWE" route="up_right" depart="1478" />
<vehicle id="up_right_312" type="typeWE" route="up_right" depart="1484" />
<vehicle id="left_313" type="typeWE" route="left" depart="1485" />
<vehicle id="right_down_314" type="typeWE" route="right_down" depart="1492" />
<vehicle id="right_315" type="typeWE" route="right" depart="1498" />
<vehicle id="left_316" type="typeWE" route="left" depart="1507" />
<vehicle id="right_317" type="typeWE" route="right" depart="1514" />
<vehicle id="up_left_318" type="typeWE" route="up_left" depart="1516" />
<vehicle id="right_319" type="typeWE" route="right" depart="1524" />
<vehicle id="right_down_320" type="typeWE" route="right_down" depart="1525" />
<vehicle id="right_up_321" type="typeWE" route="right_up" depart="1530" />
<vehicle id="right_322" type="typeWE" route="right" depart="1530" />
<vehicle id="left_up_323" type="typeWE" route="left_up" depart="1531" />
<vehicle id="down_324" type="typeWE" route="down" depart="1547" />
<vehicle id="right_325" type="typeWE" route="right" depart="1559" />
<vehicle id="right_326" type="typeWE" route="right" depart="1563" />
<vehicle id="left_327" type="typeWE" route="left" depart="1566" />
<vehicle id="down_328" type="typeWE" route="down" depart="1572" />
<vehicle id="right_329" type="typeWE" route="right" depart="1577" />
<vehicle id="up_left_330" type="typeWE" route="up_left" depart="1584" />
<vehicle id="right_331" type="typeWE" route="right" depart="1585" />
<vehicle id="down_332" type="typeWE" route="down" depart="1588" />
<vehicle id="left_333" type="typeWE" route="left" depart="1593" />
<vehicle id="left_up_334" type="typeWE" route="left_up" depart="1594" />
<vehicle id="left_335" type="typeWE" route="left" depart="1594" />
<vehicle id="left_336" type="typeWE" route="left" depart="1595" />
<vehicle id="up_337" type="typeWE" route="up" depart="1600" />
<vehicle id="right_338" type="typeWE" route="right" depart="1600" />
<vehicle id="down_339" type="typeWE" route="down" depart="1603" />
<vehicle id="left_340" type="typeWE" route="left" depart="1603" />
<vehicle id="right_341" type="typeWE" route="right" depart="1612" />
<vehicle id="left_342" type="typeWE" route="left" depart="1613" />
<vehicle id="right_343" type="typeWE" route="right" depart="1613" />
<vehicle id="left_344" type="typeWE" route="left" depart="1614" />
<vehicle id="left_up_345" type="typeWE" route="left_up" depart="1629" />
<vehicle id="right_down_346" type="typeWE" route="right_down" depart="1636" />
<vehicle id="left_347" type="typeWE" route="left" depart="1639" />
<vehicle id="right_348" type="typeWE" route="right" depart="1644" />
<vehicle id="left_349" type="typeWE" route="left" depart="1649" />
<vehicle id="down_right_350" type="typeWE" route="down_right" depart="1651" />
<vehicle id="right_351" type="typeWE" route="right" depart="1652" />
<vehicle id="left_352" type="typeWE" route="left" depart="1662" />
<vehicle id="right_353" type="typeWE" route="right" depart="1669" />
<vehicle id="left_354" type="typeWE" route="left" depart="1677" />
<vehicle id="up_right_355" type="typeWE" route="up_right" depart="1678" />
<vehicle id="left_356" type="typeWE" route="left" depart="1678" />
<vehicle id="left_up_357" type="typeWE" route="left_up" depart="1680" />
<vehicle id="right_358" type="typeWE" route="right" depart="1688" />
<vehicle id="left_359" type="typeWE" route="left" depart="1694" />
<vehicle id="left_360" type="typeWE" route="left" depart="1700" />
<vehicle id="left_361" type="typeWE" route="left" depart="1701" />
<vehicle id="down_362" type="typeWE" route="down" depart="1703" />
<vehicle id="left_363" type="typeWE" route="left" depart="1705" />
<vehicle id="right_364" type="typeWE" route="right" depart="1705" />
<vehicle id="right_365" type="typeWE" route="right" depart="1708" />
<vehicle id="left_down_366" type="typeWE" route="left_down" depart="1709" />
<vehicle id="right_367" type="typeWE" route="right" depart="1713" />
<vehicle id="down_368" type="typeWE" route="down" depart="1714" />
<vehicle id="right_369" type="typeWE" route="right" depart="1719" />
<vehicle id="right_370" type="typeWE" route="right" depart="1720" />
<vehicle id="left_up_371" type="typeWE" route="left_up" depart="1725" />
<vehicle id="up_372" type="typeWE" route="up" depart="1727" />
<vehicle id="right_up_373" type="typeWE" route="right_up" depart="1728" />
<vehicle id="right_374" type="typeWE" route="right" depart="1732" />
<vehicle id="right_down_375" type="typeWE" route="right_down" depart="1734" />
<vehicle id="right_up_376" type="typeWE" route="right_up" depart="1736" />
<vehicle id="left_377" type="typeWE" route="left" depart="1741" />
<vehicle id="left_378" type="typeWE" route="left" depart="1745" />
<vehicle id="left_up_379" type="typeWE" route="left_up" depart="1755" />
<vehicle id="down_380" type="typeWE" route="down" depart="1758" />
<vehicle id="right_381" type="typeWE" route="right" depart="1759" />
<vehicle id="up_382" type="typeWE" route="up" depart="1760" />
<vehicle id="left_383" type="typeWE" route="left" depart="1761" />
<vehicle id="left_384" type="typeWE" route="left" depart="1763" />
<vehicle id="left_385" type="typeWE" route="left" depart="1774" />
<vehicle id="up_386" type="typeWE" route="up" depart="1778" />
<vehicle id="left_387" type="typeWE" route="left" depart="1779" />
<vehicle id="right_388" type="typeWE" route="right" depart="1779" />
<vehicle id="up_389" type="typeWE" route="up" depart="1784" />
<vehicle id="left_390" type="typeWE" route="left" depart="1788" />
<vehicle id="left_391" type="typeWE" route="left" depart="1789" />
<vehicle id="up_right_392" type="typeWE" route="up_right" depart="1791" />
<vehicle id="right_393" type="typeWE" route="right" depart="1792" />
<vehicle id="up_right_394" type="typeWE" route="up_right" depart="1793" />
<vehicle id="left_395" type="typeWE" route="left" depart="1800" />
<vehicle id="down_396" type="typeWE" route="down" depart="1805" />
<vehicle id="right_397" type="typeWE" route="right" depart="1807" />
<vehicle id="right_398" type="typeWE" route="right" depart="1810" />
<vehicle id="right_399" type="typeWE" route="right" depart="1813" />
<vehicle id="right_400" type="typeWE" route="right" depart="1816" />
<vehicle id="left_down_401" type="typeWE" route="left_down" depart="1818" />
<vehicle id="left_402" type="typeWE" route="left" depart="1826" />
<vehicle id="left_403" type="typeWE" route="left" depart="1841" />
<vehicle id="left_404" type="typeWE" route="left" depart="1845" />
<vehicle id="up_right_405" type="typeWE" route="up_right" depart="1848" />
<vehicle id="left_406" type="typeWE" route="left" depart="1850" />
<vehicle id="up_407" type="typeWE" route="up" depart="1855" />
<vehicle id="right_408" type="typeWE" route="right" depart="1857" />
<vehicle id="down_right_409" type="typeWE" route="down_right" depart="1860" />
<vehicle id="right_410" type="typeWE" route="right" depart="1861" />
<vehicle id="left_411" type="typeWE" route="left" depart="1862" />
<vehicle id="up_left_412" type="typeWE" route="up_left" depart="1867" />
<vehicle id="right_down_413" type="typeWE" route="right_down" depart="1876" />
<vehicle id="right_414" type="typeWE" route="right" depart="1881" />