<routes>
        <vType id="typeWE" accel="0.8" decel="4.5" sigma="0.5" length="5" minGap="2.5" maxSpeed="50.00" guiShape="passenger"/>
	<vType id="typeNS" accel="0.8" decel="4.5" sigma="0.5" length="5" minGap="2.5" maxSpeed="50.00" guiShape="passenger"/>
	<route id="left" edges="366845096#0 366845096#1 366845096#20 366845096#22 366845096#3 366845096#4 366845096#5"/>
	<route id="left_up" edges="366845096#0 366845096#1 366845096#20 366845096#22 -157076458#1 -157076458#0"/>
	<route id="left_down" edges="366845096#0 366845096#1 366845096#20 366845096#22 -26446721#2 -26446721#1 -26446721#0"/>
	<route id="right" edges="-366845096#5 -366845096#4 -366845096#30 -366845096#32 -366845096#2 -366845096#1 -366845096#0 "/>
	<route id="right_up" edges="-366845096#5 -366845096#4 -366845096#30 -366845096#32 -157076458#1 -157076458#0 "/>
	<route id="right_down" edges="-366845096#5 -366845096#4 -366845096#30 -366845096#32 -26446721#2 -26446721#1 -26446721#0"/>
	<route id="up" edges="157076458#0 157076458#1 -26446721#2 -26446721#1 -26446721#0"/>
	<route id="up_left" edges="157076458#0 157076458#1 -366845096#2 -366845096#1 -366845096#0"/>
        <route id="up_right" edges="157076458#0 157076458#1 366845096#3 366845096#4 366845096#5"/>
	<route id="down" edges="26446721#0 26446721#1 26446721#2 -157076458#1 -157076458#0"/>
        <route id="down_left" edges="26446721#0 26446721#1 26446721#2 -366845096#2 -366845096#1 -366845096#0"/>
	<route id="down_right" edges="26446721#0 26446721#1 26446721#2 366845096#3 366845096#4 366845096#5"/>
<vehicle id="left_down_0" type="typeWE" route="left_down" depart="1" />
<vehicle id="right_1" type="typeWE" route="right" depart="1" />
<vehicle id="down_2" type="typeWE" route="down" depart="3" />
<vehicle id="left_3" type="typeWE" route="left" depart="3" />
<vehicle id="left_4" type="typeWE" route="left" depart="4" />
<vehicle id="down_5" type="typeWE" route="down" depart="7" />
<vehicle id="down_left_6" type="typeWE" route="down_left" depart="8" />
<vehicle id="right_7" type="typeWE" route="right" depart="9" />
<vehicle id="down_left_8" type="typeWE" route="down_left" depart="10" />
<vehicle id="left_up_9" type="typeWE" route="left_up" depart="10" />
<vehicle id="right_10" type="typeWE" route="right" depart="10" />
<vehicle id="right_11" type="typeWE" route="right" depart="12" />
<vehicle id="left_12" type="typeWE" route="left" depart="14" />
<vehicle id="left_13" type="typeWE" route="left" depart="15" />
<vehicle id="down_14" type="typeWE" route="down" depart="16" />
<vehicle id="right_15" type="typeWE" route="right" depart="16" />
<vehicle id="left_16" type="typeWE" route="left" depart="18" />
<vehicle id="right_17" type="typeWE" route="right" depart="21" />
<vehicle id="down_18" type="typeWE" route="down" depart="22" />
<vehicle id="right_19" type="typeWE" route="right" depart="22" />
<vehicle id="right_20" type="typeWE" route="right" depart="23" />
<vehicle id="up_21" type="typeWE" route="up" depart="24" />
<vehicle id="right_down_22" type="typeWE" route="right_down" depart="24" />
<vehicle id="right_23" type="typeWE" route="right" depart="25" />
<vehicle id="left_up_24" type="typeWE" route="left_up" depart="28" />
<vehicle id="left_25" type="typeWE" route="left" depart="30" />
<vehicle id="right_up_26" type="typeWE" route="right_up" depart="32" />
<vehicle id="right_27" type="typeWE" route="right" depart="34" />
<vehicle id="left_down_28" type="typeWE" route="left_down" depart="35" />
<vehicle id="up_right_29" type="typeWE" route="up_right" depart="40" />
<vehicle id="right_30" type="typeWE" route="right" depart="40" />
<vehicle id="right_down_31" type="typeWE" route="right_down" depart="41" />
<vehicle id="up_32" type="typeWE" route="up" depart="43" />
<vehicle id="right_33" type="typeWE" route="right" depart="43" />
<vehicle id="left_34" type="typeWE" route="left" depart="44" />
<vehicle id="right_35" type="typeWE" route="right" depart="44" />
<vehicle id="right_up_36" type="typeWE" route="right_up" depart="49" />
<vehicle id="left_37" type="typeWE" route="left" depart="50" />
<vehicle id="right_38" type="typeWE" route="right" depart="51" />
<vehicle id="right_39" type="typeWE" route="right" depart="52" />
<vehicle id="up_right_40" type="typeWE" route="up_right" depart="53" />
<vehicle id="left_41" type="typeWE" route="left" depart="54" />
<vehicle id="right_42" type="typeWE" route="right" depart="54" />
<vehicle id="right_43" type="typeWE" route="right" depart="56" />
<vehicle id="up_left_44" type="typeWE" route="up_left" depart="57" />
<vehicle id="left_45" type="typeWE" route="left" depart="58" />
<vehicle id="left_46" type="typeWE" route="left" depart="59" />
<vehicle id="left_47" type="typeWE" route="left" depart="60" />
<vehicle id="right_48" type="typeWE" route="right" depart="64" />
<vehicle id="left_49" type="typeWE" route="left" depart="67" />
<vehicle id="right_50" type="typeWE" route="right" depart="67" />
<vehicle id="right_51" type="typeWE" route="right" depart="70" />
<vehicle id="left_52" type="typeWE" route="left" depart="72" />
<vehicle id="left_up_53" type="typeWE" route="left_up" depart="73" />
<vehicle id="left_54" type="typeWE" route="left" depart="75" />
<vehicle id="left_55" type="typeWE" route="left" depart="77" />
<vehicle id="right_56" type="typeWE" route="right" depart="78" />
<vehicle id="left_57" type="typeWE" route="left" depart="79" />
<vehicle id="left_up_58" type="typeWE" route="left_up" depart="80" />
<vehicle id="right_59" type="typeWE" route="right" depart="80" />
<vehicle id="left_60" type="typeWE" route="left" depart="81" />
<vehicle id="right_61" type="typeWE" route="right" depart="82" />
<vehicle id="right_62" type="typeWE" route="right" depart="83" />
<vehicle id="down_63" type="typeWE" route="down" depart="84" />
<vehicle id="left_64" type="typeWE" route="left" depart="84" />
<vehicle id="left_up_65" type="typeWE" route="left_up" depart="85" />
<vehicle id="left_66" type="typeWE" route="left" depart="85" />
<vehicle id="right_67" type="typeWE" route="right" depart="85" />
<vehicle id="up_68" type="typeWE" route="up" depart="86" />
<vehicle id="down_69" type="typeWE" route="down" depart="87" />
<vehicle id="right_70" type="typeWE" route="right" depart="87" />
<vehicle id="left_71" type="typeWE" route="left" depart="88" />
<vehicle id="right_72" type="typeWE" route="right" depart="89" />
<vehicle id="right_73" type="typeWE" route="right" depart="90" />
<vehicle id="right_down_74" type="typeWE" route="right_down" depart="93" />
<vehicle id="down_75" type="typeWE" route="down" depart="94" />
<vehicle id="right_76" type="typeWE" route="right" depart="94" />
<vehicle id="left_77" type="typeWE" route="left" depart="95" />
<vehicle id="down_left_78" type="typeWE" route="down_left" depart="97" />
<vehicle id="right_up_79" type="typeWE" route="right_up" depart="97" />
<vehicle id="left_80" type="typeWE" route="left" depart="98" />
<vehicle id="right_down_81" type="typeWE" route="right_down" depart="98" />
<vehicle id="down_82" type="typeWE" route="down" depart="99" />
<vehicle id="right_83" type="typeWE" route="right" depart="99" />
<vehicle id="left_84" type="typeWE" route="left" depart="100" />
<vehicle id="right_85" type="typeWE" route="right" depart="101" />
<vehicle id="right_86" type="typeWE" route="right" depart="102" />
<vehicle id="left_87" type="typeWE" route="left" depart="103" />
<vehicle id="left_88" type="typeWE" route="left" depart="106" />
<vehicle id="left_89" type="typeWE" route="left" depart="109" />
<vehicle id="up_90" type="typeWE" route="up" depart="110" />
<vehicle id="right_91" type="typeWE" route="right" depart="110" />
<vehicle id="right_92" type="typeWE" route="right" depart="112" />
<vehicle id="right_93" type="typeWE" route="right" depart="113" />
<vehicle id="down_94" type="typeWE" route="down" depart="114" />
<vehicle id="left_95" type="typeWE" route="left" depart="114" />
<vehicle id="right_96" type="typeWE" route="right" depart="114" />
<vehicle id="left_97" type="typeWE" route="left" depart="115" />
<vehicle id="right_98" type="typeWE" route="right" depart="115" />
<vehicle id="down_left_99" type="typeWE" route="down_left" depart="117" />
<vehicle id="up_right_100" type="typeWE" route="up_right" depart="119" />
<vehicle id="right_101" type="typeWE" route="right" depart="120" />
<vehicle id="left_102" type="typeWE" route="left" depart="124" />
<vehicle id="down_103" type="typeWE" route="down" depart="125" />
<vehicle id="left_104" type="typeWE" route="left" depart="129" />
<vehicle id="right_105" type="typeWE" route="right" depart="131" />
<vehicle id="right_106" type="typeWE" route="right" depart="132" />
<vehicle id="left_107" type="typeWE" route="left" depart="135" />
<vehicle id="right_108" type="typeWE" route="right" depart="139" />
<vehicle id="down_109" type="typeWE" route="down" depart="143" />
<vehicle id="left_110" type="typeWE" route="left" depart="145" />
<vehicle id="right_111" type="typeWE" route="right" depart="146" />
<vehicle id="up_112" type="typeWE" route="up" depart="150" />
<vehicle id="left_down_113" type="typeWE" route="left_down" depart="150" />
<vehicle id="up_left_114" type="typeWE" route="up_left" depart="153" />
<vehicle id="right_115" type="typeWE" route="right" depart="153" />
<vehicle id="up_116" type="typeWE" route="up" depart="156" />
<vehicle id="left_117" type="typeWE" route="left" depart="159" />
<vehicle id="down_118" type="typeWE" route="down" depart="163" />
<vehicle id="left_up_119" type="typeWE" route="left_up" depart="163" />
<vehicle id="right_up_120" type="typeWE" route="right_up" depart="164" />
<vehicle id="right_121" type="typeWE" route="right" depart="164" />
<vehicle id="left_122" type="typeWE" route="left" depart="165" />
<vehicle id="left_123" type="typeWE" route="left" depart="166" />
<vehicle id="right_up_124" type="typeWE" route="right_up" depart="170" />
<vehicle id="left_125" type="typeWE" route="left" depart="174" />
<vehicle id="up_left_126" type="typeWE" route="up_left" depart="176" />
<vehicle id="left_127" type="typeWE" route="left" depart="176" />
<vehicle id="right_up_128" type="typeWE" route="right_up" depart="176" />
<vehicle id="up_129" type="typeWE" route="up" depart="177" />
<vehicle id="left_130" type="typeWE" route="left" depart="177" />
<vehicle id="down_131" type="typeWE" route="down" depart="179" />
<vehicle id="up_132" type="typeWE" route="up" depart="180" />
<vehicle id="left_133" type="typeWE" route="left" depart="180" />
<vehicle id="left_134" type="typeWE" route="left" depart="181" />
<vehicle id="down_135" type="typeWE" route="down" depart="183" />
<vehicle id="up_right_136" type="typeWE" route="up_right" depart="185" />
<vehicle id="right_137" type="typeWE" route="right" depart="186" />
<vehicle id="left_138" type="typeWE" route="left" depart="187" />
<vehicle id="up_139" type="typeWE" route="up" depart="194" />
<vehicle id="up_140" type="typeWE" route="up" depart="195" />
<vehicle id="left_141" type="typeWE" route="left" depart="195" />
<vehicle id="right_142" type="typeWE" route="right" depart="195" />
<vehicle id="right_143" type="typeWE" route="right" depart="196" />
<vehicle id="left_144" type="typeWE" route="left" depart="197" />
<vehicle id="right_145" type="typeWE" route="right" depart="197" />
<vehicle id="left_146" type="typeWE" route="left" depart="198" />
<vehicle id="right_147" type="typeWE" route="right" depart="198" />
<vehicle id="left_148" type="typeWE" route="left" depart="200" />
<vehicle id="up_149" type="typeWE" route="up" depart="202" />
<vehicle id="right_150" type="typeWE" route="right" depart="203" />
<vehicle id="down_151" type="typeWE" route="down" depart="204" />
<vehicle id="right_152" type="typeWE" route="right" depart="207" />
<vehicle id="left_153" type="typeWE" route="left" depart="209" />
<vehicle id="left_154" type="typeWE" route="left" depart="211" />
<vehicle id="right_155" type="typeWE" route="right" depart="211" />
<vehicle id="left_down_156" type="typeWE" route="left_down" depart="213" />
<vehicle id="up_left_157" type="typeWE" route="up_left" depart="214" />
<vehicle id="left_down_158" type="typeWE" route="left_down" depart="215" />
<vehicle id="right_159" type="typeWE" route="right" depart="216" />
<vehicle id="up_160" type="typeWE" route="up" depart="218" />
<vehicle id="right_down_161" type="typeWE" route="right_down" depart="219" />
<vehicle id="left_162" type="typeWE" route="left" depart="220" />
<vehicle id="right_163" type="typeWE" route="right" depart="223" />
<vehicle id="down_164" type="typeWE" route="down" depart="225" />
<vehicle id="right_165" type="typeWE" route="right" depart="227" />
<vehicle id="left_166" type="typeWE" route="left" depart="228" />
<vehicle id="up_left_167" type="typeWE" route="up_left" depart="229" />
<vehicle id="left_down_168" type="typeWE" route="left_down" depart="229" />
<vehicle id="right_169" type="typeWE" route="right" depart="229" />
<vehicle id="right_170" type="typeWE" route="right" depart="233" />
<vehicle id="down_171" type="typeWE" route="down" depart="235" />
<vehicle id="left_172" type="typeWE" route="left" depart="235" />
<vehicle id="left_173" type="typeWE" route="left" depart="236" />
<vehicle id="left_174" type="typeWE" route="left" depart="237" />
<vehicle id="right_175" type="typeWE" route="right" depart="240" />
<vehicle id="down_176" type="typeWE" route="down" depart="242" />
<vehicle id="left_177" type="typeWE" route="left" depart="243" />
<vehicle id="right_178" type="typeWE" route="right" depart="243" />
<vehicle id="left_179" type="typeWE" route="left" depart="246" />
<vehicle id="right_180" type="typeWE" route="right" depart="248" />
<vehicle id="up_181" type="typeWE" route="up" depart="249" />
<vehicle id="right_182" type="typeWE" route="right" depart="251" />
<vehicle id="left_183" type="typeWE" route="left" depart="253" />
<vehicle id="right_184" type="typeWE" route="right" depart="260" />
<vehicle id="up_185" type="typeWE" route="up" depart="261" />
<vehicle id="right_down_186" type="typeWE" route="right_down" depart="261" />
<vehicle id="left_187" type="typeWE" route="left" depart="263" />
<vehicle id="right_188" type="typeWE" route="right" depart="263" />
<vehicle id="up_189" type="typeWE" route="up" depart="264" />
<vehicle id="down_right_190" type="typeWE" route="down_right" depart="267" />
<vehicle id="left_down_191" type="typeWE" route="left_down" depart="267" />
<vehicle id="left_192" type="typeWE" route="left" depart="272" />
<vehicle id="right_193" type="typeWE" route="right" depart="275" />
<vehicle id="up_right_194" type="typeWE" route="up_right" depart="276" />
<vehicle id="left_195" type="typeWE" route="left" depart="276" />
<vehicle id="up_196" type="typeWE" route="up" depart="277" />
<vehicle id="down_197" type="typeWE" route="down" depart="277" />
<vehicle id="left_198" type="typeWE" route="left" depart="277" />
<vehicle id="right_199" type="typeWE" route="right" depart="279" />
<vehicle id="down_200" type="typeWE" route="down" depart="280" />
<vehicle id="left_201" type="typeWE" route="left" depart="282" />
<vehicle id="right_202" type="typeWE" route="right" depart="282" />
<vehicle id="down_203" type="typeWE" route="down" depart="283" />
<vehicle id="right_up_204" type="typeWE" route="right_up" depart="283" />
<vehicle id="left_205" type="typeWE" route="left" depart="285" />
<vehicle id="left_206" type="typeWE" route="left" depart="286" />
<vehicle id="down_207" type="typeWE" route="down" depart="288" />
<vehicle id="right_208" type="typeWE" route="right" depart="288" />
<vehicle id="right_209" type="typeWE" route="right" depart="290" />
<vehicle id="up_right_210" type="typeWE" route="up_right" depart="293" />
<vehicle id="right_211" type="typeWE" route="right" depart="293" />
<vehicle id="right_212" type="typeWE" route="right" depart="295" />
<vehicle id="down_213" type="typeWE" route="down" depart="297" />
<vehicle id="right_214" type="typeWE" route="right" depart="297" />
<vehicle id="left_down_215" type="typeWE" route="left_down" depart="304" />
<vehicle id="right_216" type="typeWE" route="right" depart="306" />
<vehicle id="up_217" type="typeWE" route="up" depart="307" />
<vehicle id="right_218" type="typeWE" route="right" depart="307" />
<vehicle id="down_left_219" type="typeWE" route="down_left" depart="309" />
<vehicle id="right_220" type="typeWE" route="right" depart="310" />
<vehicle id="left_down_221" type="typeWE" route="left_down" depart="311" />
<vehicle id="left_222" type="typeWE" route="left" depart="311" />
<vehicle id="left_223" type="typeWE" route="left" depart="314" />
<vehicle id="right_224" type="typeWE" route="right" depart="314" />
<vehicle id="right_225" type="typeWE" route="right" depart="315" />
<vehicle id="left_226" type="typeWE" route="left" depart="316" />
<vehicle id="right_down_227" type="typeWE" route="right_down" depart="316" />
<vehicle id="left_228" type="typeWE" route="left" depart="317" />
<vehicle id="right_229" type="typeWE" route="right" depart="317" />
<vehicle id="down_left_230" type="typeWE" route="down_left" depart="320" />
<vehicle id="down_231" type="typeWE" route="down" depart="322" />
<vehicle id="left_232" type="typeWE" route="left" depart="328" />
<vehicle id="down_233" type="typeWE" route="down" depart="329" />
<vehicle id="left_234" type="typeWE" route="left" depart="329" />
<vehicle id="left_up_235" type="typeWE" route="left_up" depart="330" />
<vehicle id="up_236" type="typeWE" route="up" depart="334" />
<vehicle id="left_237" type="typeWE" route="left" depart="335" />
<vehicle id="up_right_238" type="typeWE" route="up_right" depart="336" />
<vehicle id="down_right_239" type="typeWE" route="down_right" depart="339" />
<vehicle id="left_240" type="typeWE" route="left" depart="339" />
<vehicle id="right_241" type="typeWE" route="right" depart="339" />
<vehicle id="up_242" type="typeWE" route="up" depart="341" />
<vehicle id="right_down_243" type="typeWE" route="right_down" depart="341" />
<vehicle id="left_244" type="typeWE" route="left" depart="343" />
<vehicle id="up_245" type="typeWE" route="up" depart="345" />
<vehicle id="left_246" type="typeWE" route="left" depart="345" />
<vehicle id="up_left_247" type="typeWE" route="up_left" depart="346" />
<vehicle id="left_248" type="typeWE" route="left" depart="347" />
<vehicle id="right_249" type="typeWE" route="right" depart="347" />
<vehicle id="left_250" type="typeWE" route="left" depart="349" />
<vehicle id="left_251" type="typeWE" route="left" depart="350" />
<vehicle id="left_252" type="typeWE" route="left" depart="351" />
<vehicle id="left_253" type="typeWE" route="left" depart="358" />
<vehicle id="right_254" type="typeWE" route="right" depart="358" />
<vehicle id="up_255" type="typeWE" route="up" depart="359" />
<vehicle id="left_up_256" type="typeWE" route="left_up" depart="362" />
<vehicle id="right_257" type="typeWE" route="right" depart="362" />
<vehicle id="down_right_258" type="typeWE" route="down_right" depart="363" />
<vehicle id="left_down_259" type="typeWE" route="left_down" depart="363" />
<vehicle id="right_260" type="typeWE" route="right" depart="365" />
<vehicle id="left_261" type="typeWE" route="left" depart="366" />
<vehicle id="right_262" type="typeWE" route="right" depart="367" />
<vehicle id="right_263" type="typeWE" route="right" depart="370" />
<vehicle id="right_264" type="typeWE" route="right" depart="372" />
<vehicle id="left_265" type="typeWE" route="left" depart="373" />
<vehicle id="right_down_266" type="typeWE" route="right_down" depart="374" />
<vehicle id="right_267" type="typeWE" route="right" depart="376" />
<vehicle id="left_268" type="typeWE" route="left" depart="377" />
<vehicle id="right_269" type="typeWE" route="right" depart="378" />
<vehicle id="right_270" type="typeWE" route="right" depart="379" />
<vehicle id="left_271" type="typeWE" route="left" depart="380" />
<vehicle id="down_272" type="typeWE" route="down" depart="383" />
<vehicle id="left_273" type="typeWE" route="left" depart="384" />
<vehicle id="right_274" type="typeWE" route="right" depart="385" />
<vehicle id="right_up_275" type="typeWE" route="right_up" depart="386" />
<vehicle id="up_276" type="typeWE" route="up" depart="387" />
<vehicle id="up_277" type="typeWE" route="up" depart="391" />
<vehicle id="left_278" type="typeWE" route="left" depart="391" />
<vehicle id="up_279" type="typeWE" route="up" depart="392" />
<vehicle id="left_up_280" type="typeWE" route="left_up" depart="392" />
<vehicle id="left_281" type="typeWE" route="left" depart="393" />
<vehicle id="up_282" type="typeWE" route="up" depart="394" />
<vehicle id="left_283" type="typeWE" route="left" depart="394" />
<vehicle id="right_284" type="typeWE" route="right" depart="394" />
<vehicle id="left_285" type="typeWE" route="left" depart="399" />
<vehicle id="right_286" type="typeWE" route="right" depart="401" />
<vehicle id="right_287" type="typeWE" route="right" depart="402" />
<vehicle id="up_288" type="typeWE" route="up" depart="403" />
<vehicle id="left_289" type="typeWE" route="left" depart="403" />
<vehicle id="down_290" type="typeWE" route="down" depart="404" />
<vehicle id="up_291" type="typeWE" route="up" depart="406" />
<vehicle id="left_292" type="typeWE" route="left" depart="407" />
<vehicle id="right_293" type="typeWE" route="right" depart="407" />
<vehicle id="right_294" type="typeWE" route="right" depart="410" />
<vehicle id="down_295" type="typeWE" route="down" depart="411" />
<vehicle id="right_296" type="typeWE" route="right" depart="411" />
<vehicle id="right_297" type="typeWE" route="right" depart="413" />
<vehicle id="right_298" type="typeWE" route="right" depart="414" />
<vehicle id="left_299" type="typeWE" route="left" depart="416" />
<vehicle id="down_300" type="typeWE" route="down" depart="417" />
<vehicle id="left_up_301" type="typeWE" route="left_up" depart="417" />
<vehicle id="left_302" type="typeWE" route="left" depart="417" />
<vehicle id="down_left_303" type="typeWE" route="down_left" depart="418" />
<vehicle id="right_304" type="typeWE" route="right" depart="418" />
<vehicle id="left_305" type="typeWE" route="left" depart="421" />
<vehicle id="left_306" type="typeWE" route="left" depart="423" />
<vehicle id="right_307" type="typeWE" route="right" depart="423" />
<vehicle id="up_308" type="typeWE" route="up" depart="425" />
<vehicle id="left_309" type="typeWE" route="left" depart="425" />
<vehicle id="left_310" type="typeWE" route="left" depart="426" />
<vehicle id="right_311" type="typeWE" route="right" depart="426" />
<vehicle id="down_312" type="typeWE" route="down" depart="428" />
<vehicle id="left_313" type="typeWE" route="left" depart="431" />
<vehicle id="right_314" type="typeWE" route="right" depart="431" />
<vehicle id="left_315" type="typeWE" route="left" depart="434" />
<vehicle id="left_316" type="typeWE" route="left" depart="435" />
<vehicle id="up_right_317" type="typeWE" route="up_right" depart="437" />
<vehicle id="left_318" type="typeWE" route="left" depart="437" />
<vehicle id="right_319" type="typeWE" route="right" depart="438" />
<vehicle id="left_320" type="typeWE" route="left" depart="439" />
<vehicle id="left_321" type="typeWE" route="left" depart="440" />
<vehicle id="left_322" type="typeWE" route="left" depart="443" />
<vehicle id="left_323" type="typeWE" route="left" depart="445" />
<vehicle id="down_right_324" type="typeWE" route="down_right" depart="446" />
<vehicle id="left_325" type="typeWE" route="left" depart="448" />
<vehicle id="left_down_326" type="typeWE" route="left_down" depart="449" />
<vehicle id="left_327" type="typeWE" route="left" depart="451" />
<vehicle id="up_left_328" type="typeWE" route="up_left" depart="452" />
<vehicle id="left_329" type="typeWE" route="left" depart="452" />
<vehicle id="right_330" type="typeWE" route="right" depart="454" />
<vehicle id="down_left_331" type="typeWE" route="down_left" depart="458" />
<vehicle id="right_332" type="typeWE" route="right" depart="459" />
<vehicle id="right_333" type="typeWE" route="right" depart="462" />
<vehicle id="right_334" type="typeWE" route="right" depart="463" />
<vehicle id="left_335" type="typeWE" route="left" depart="465" />
<vehicle id="left_336" type="typeWE" route="left" depart="466" />
<vehicle id="right_up_337" type="typeWE" route="right_up" depart="466" />
<vehicle id="right_338" type="typeWE" route="right" depart="466" />
<vehicle id="left_339" type="typeWE" route="left" depart="468" />
<vehicle id="left_340" type="typeWE" route="left" depart="469" />
<vehicle id="left_341" type="typeWE" route="left" depart="474" />
<vehicle id="right_342" type="typeWE" route="right" depart="474" />
<vehicle id="down_right_343" type="typeWE" route="down_right" depart="476" />
<vehicle id="down_344" type="typeWE" route="down" depart="476" />
<vehicle id="left_345" type="typeWE" route="left" depart="476" />
<vehicle id="down_left_346" type="typeWE" route="down_left" depart="477" />
<vehicle id="down_347" type="typeWE" route="down" depart="479" />
<vehicle id="right_348" type="typeWE" route="right" depart="480" />
<vehicle id="right_349" type="typeWE" route="right" depart="481" />
<vehicle id="left_350" type="typeWE" route="left" depart="483" />
<vehicle id="right_351" type="typeWE" route="right" depart="483" />
<vehicle id="left_352" type="typeWE" route="left" depart="485" />
<vehicle id="left_353" type="typeWE" route="left" depart="486" />
<vehicle id="left_354" type="typeWE" route="left" depart="488" />
<vehicle id="left_355" type="typeWE" route="left" depart="489" />
<vehicle id="right_356" type="typeWE" route="right" depart="489" />
<vehicle id="right_357" type="typeWE" route="right" depart="491" />
<vehicle id="down_358" type="typeWE" route="down" depart="492" />
<vehicle id="right_359" type="typeWE" route="right" depart="492" />
<vehicle id="right_360" type="typeWE" route="right" depart="494" />
<vehicle id="left_361" type="typeWE" route="left" depart="496" />
<vehicle id="up_362" type="typeWE" route="up" depart="497" />
<vehicle id="down_right_363" type="typeWE" route="down_right" depart="497" />
<vehicle id="left_364" type="typeWE" route="left" depart="500" />
<vehicle id="right_down_365" type="typeWE" route="right_down" depart="501" />
<vehicle id="left_366" type="typeWE" route="left" depart="504" />
<vehicle id="right_367" type="typeWE" route="right" depart="504" />
<vehicle id="right_368" type="typeWE" route="right" depart="505" />
<vehicle id="left_369" type="typeWE" route="left" depart="506" />
<vehicle id="left_370" type="typeWE" route="left" depart="507" />
<vehicle id="right_up_371" type="typeWE" route="right_up" depart="507" />
<vehicle id="right_372" type="typeWE" route="right" depart="507" />
<vehicle id="left_373" type="typeWE" route="left" depart="509" />
<vehicle id="up_374" type="typeWE" route="up" depart="510" />
<vehicle id="left_375" type="typeWE" route="left" depart="514" />
<vehicle id="right_376" type="typeWE" route="right" depart="514" />
<vehicle id="right_377" type="typeWE" route="right" depart="515" />
<vehicle id="up_378" type="typeWE" route="up" depart="517" />
<vehicle id="left_379" type="typeWE" route="left" depart="517" />
<vehicle id="right_380" type="typeWE" route="right" depart="517" />
<vehicle id="up_381" type="typeWE" route="up" depart="519" />
<vehicle id="left_382" type="typeWE" route="left" depart="523" />
<vehicle id="left_383" type="typeWE" route="left" depart="525" />
<vehicle id="left_384" type="typeWE" route="left" depart="528" />
<vehicle id="left_up_385" type="typeWE" route="left_up" depart="529" />
<vehicle id="left_386" type="typeWE" route="left" depart="529" />
<vehicle id="right_387" type="typeWE" route="right" depart="531" />
<vehicle id="left_388" type="typeWE" route="left" depart="535" />
<vehicle id="right_down_389" type="typeWE" route="right_down" depart="537" />
<vehicle id="right_390" type="typeWE" route="right" depart="540" />
<vehicle id="left_391" type="typeWE" route="left" depart="541" />
<vehicle id="up_right_392" type="typeWE" route="up_right" depart="544" />
<vehicle id="right_393" type="typeWE" route="right" depart="544" />
<vehicle id="left_394" type="typeWE" route="left" depart="545" />
<vehicle id="up_395" type="typeWE" route="up" depart="547" />
<vehicle id="right_396" type="typeWE" route="right" depart="548" />
<vehicle id="left_397" type="typeWE" route="left" depart="551" />
<vehicle id="right_up_398" type="typeWE" route="right_up" depart="552" />
<vehicle id="left_399" type="typeWE" route="left" depart="553" />
<vehicle id="right_400" type="typeWE" route="right" depart="553" />
<vehicle id="left_401" type="typeWE" route="left" depart="555" />
<vehicle id="right_402" type="typeWE" route="right" depart="557" />
<vehicle id="down_403" type="typeWE" route="down" depart="558" />
<vehicle id="left_404" type="typeWE" route="left" depart="558" />
<vehicle id="left_405" type="typeWE" route="left" depart="559" />
<vehicle id="left_406" type="typeWE" route="left" depart="560" />
<vehicle id="down_right_407" type="typeWE" route="down_right" depart="561" />
<vehicle id="left_408" type="typeWE" route="left" depart="562" />
<vehicle id="right_up_409" type="typeWE" route="right_up" depart="562" />
<vehicle id="right_410" type="typeWE" route="right" depart="563" />
<vehicle id="right_411" type="typeWE" route="right" depart="564" />
<vehicle id="left_412" type="typeWE" route="left" depart="567" />
<vehicle id="right_413" type="typeWE" route="right" depart="569" />
<vehicle id="left_414" type="typeWE" route="left" depart="570" />
<vehicle id="right_415" type="typeWE" route="right" depart="570" />
<vehicle id="right_416" type="typeWE" route="right" depart="572" />
<vehicle id="left_417" type="typeWE" route="left" depart="573" />
<vehicle id="right_418" type="typeWE" route="right" depart="573" />
<vehicle id="left_419" type="typeWE" route="left" depart="574" />
<vehicle id="up_420" type="typeWE" route="up" depart="576" />