<routes>
        <vType id="typeWE" accel="0.8" decel="4.5" sigma="0.5" length="5" minGap="2.5" maxSpeed="50.00" guiShape="passenger"/>
	<vType id="typeNS" accel="0.8" decel="4.5" sigma="0.5" length="5" minGap="2.5" maxSpeed="50.00" guiShape="passenger"/>
	<route id="left" edges="366845096#0 366845096#1 366845096#20 366845096#22 366845096#3 366845096#4 366845096#5"/>
	<route id="left_up" edges="366845096#0 366845096#1 366845096#20 366845096#22 -157076458#1 -157076458#0"/>
	<route id="left_down" edges="366845096#0 366845096#1 366845096#20 366845096#22 -26446721#2 -26446721#1 -26446721#0"/>
	<route id="right" edges="-366845096#5 -366845096#4 -366845096#30 -366845096#32 -366845096#2 -366845096#1 -366845096#0 "/>
	<route id="right_up" edges="-366845096#5 -366845096#4 -366845096#30 -366845096#32 -157076458#1 -157076458#0 "/>
	<route id="right_down" edges="-366845096#5 -366845096#4 -366845096#30 -366845096#32 -26446721#2 -26446721#1 -26446721#0"/>
	<route id="up" edges="157076458#0 157076458#1 -26446721#2 -26446721#1 -26446721#0"/>
	<route id="up_left" edges="157076458#0 157076458#1 -366845096#2 -366845096#1 -366845096#0"/>
        <route id="up_right" edges="157076458#0 157076458#1 366845096#3 366845096#4 366845096#5"/>
	<route id="down" edges="26446721#0 26446721#1 26446721#2 -157076458#1 -157076458#0"/>
        <route id="down_left" edges="26446721#0 26446721#1 26446721#2 -366845096#2 -366845096#1 -366845096#0"/>
	<route id="down_right" edges="26446721#0 26446721#1 26446721#2 366845096#3 366845096#4 366845096#5"/>
<vehicle id="left_down_0" type="typeWE" route="left_down" depart="1" />
<vehicle id="left_1" type="typeWE" route="left" depart="3" />
<vehicle id="down_left_2" type="typeWE" route="down_left" depart="10" />
<vehicle id="right_3" type="typeWE" route="right" depart="10" />
<vehicle id="left_4" type="typeWE" route="left" depart="14" />
<vehicle id="left_5" type="typeWE" route="left" depart="18" />
<vehicle id="down_6" type="typeWE" route="down" depart="22" />
<vehicle id="right_7" type="typeWE" route="right" depart="22" />
<vehicle id="right_8" type="typeWE" route="right" depart="23" />
<vehicle id="up_9" type="typeWE" route="up" depart="24" />
<vehicle id="right_down_10" type="typeWE" route="right_down" depart="24" />
<vehicle id="left_11" type="typeWE" route="left" depart="30" />
<vehicle id="right_up_12" type="typeWE" route="right_up" depart="32" />
<vehicle id="right_13" type="typeWE" route="right" depart="34" />
<vehicle id="left_down_14" type="typeWE" route="left_down" depart="35" />
<vehicle id="up_right_15" type="typeWE" route="up_right" depart="40" />
<vehicle id="up_16" type="typeWE" route="up" depart="43" />
<vehicle id="right_17" type="typeWE" route="right" depart="44" />
<vehicle id="left_18" type="typeWE" route="left" depart="50" />
<vehicle id="right_19" type="typeWE" route="right" depart="51" />
<vehicle id="left_20" type="typeWE" route="left" depart="54" />
<vehicle id="right_21" type="typeWE" route="right" depart="56" />
<vehicle id="up_left_22" type="typeWE" route="up_left" depart="57" />
<vehicle id="left_23" type="typeWE" route="left" depart="59" />
<vehicle id="left_24" type="typeWE" route="left" depart="60" />
<vehicle id="right_25" type="typeWE" route="right" depart="64" />
<vehicle id="right_26" type="typeWE" route="right" depart="70" />
<vehicle id="left_up_27" type="typeWE" route="left_up" depart="73" />
<vehicle id="left_28" type="typeWE" route="left" depart="75" />
<vehicle id="right_29" type="typeWE" route="right" depart="78" />
<vehicle id="left_30" type="typeWE" route="left" depart="79" />
<vehicle id="right_31" type="typeWE" route="right" depart="80" />
<vehicle id="left_32" type="typeWE" route="left" depart="81" />
<vehicle id="right_33" type="typeWE" route="right" depart="82" />
<vehicle id="right_34" type="typeWE" route="right" depart="83" />
<vehicle id="down_35" type="typeWE" route="down" depart="84" />
<vehicle id="left_36" type="typeWE" route="left" depart="84" />
<vehicle id="left_up_37" type="typeWE" route="left_up" depart="85" />
<vehicle id="up_38" type="typeWE" route="up" depart="86" />
<vehicle id="right_39" type="typeWE" route="right" depart="87" />
<vehicle id="left_40" type="typeWE" route="left" depart="88" />
<vehicle id="right_41" type="typeWE" route="right" depart="90" />
<vehicle id="down_42" type="typeWE" route="down" depart="94" />
<vehicle id="right_43" type="typeWE" route="right" depart="94" />
<vehicle id="left_44" type="typeWE" route="left" depart="95" />
<vehicle id="down_left_45" type="typeWE" route="down_left" depart="97" />
<vehicle id="right_up_46" type="typeWE" route="right_up" depart="97" />
<vehicle id="left_47" type="typeWE" route="left" depart="98" />
<vehicle id="down_48" type="typeWE" route="down" depart="99" />
<vehicle id="right_49" type="typeWE" route="right" depart="99" />
<vehicle id="left_50" type="typeWE" route="left" depart="103" />
<vehicle id="left_51" type="typeWE" route="left" depart="106" />
<vehicle id="left_52" type="typeWE" route="left" depart="109" />
<vehicle id="right_53" type="typeWE" route="right" depart="112" />
<vehicle id="down_54" type="typeWE" route="down" depart="114" />
<vehicle id="right_55" type="typeWE" route="right" depart="114" />
<vehicle id="left_56" type="typeWE" route="left" depart="115" />
<vehicle id="right_57" type="typeWE" route="right" depart="115" />
<vehicle id="left_58" type="typeWE" route="left" depart="124" />
<vehicle id="left_59" type="typeWE" route="left" depart="129" />
<vehicle id="right_60" type="typeWE" route="right" depart="131" />
<vehicle id="right_61" type="typeWE" route="right" depart="132" />
<vehicle id="right_62" type="typeWE" route="right" depart="139" />
<vehicle id="down_63" type="typeWE" route="down" depart="143" />
<vehicle id="left_64" type="typeWE" route="left" depart="145" />
<vehicle id="left_down_65" type="typeWE" route="left_down" depart="150" />
<vehicle id="up_left_66" type="typeWE" route="up_left" depart="153" />
<vehicle id="up_67" type="typeWE" route="up" depart="156" />
<vehicle id="down_68" type="typeWE" route="down" depart="163" />
<vehicle id="up_left_69" type="typeWE" route="up_left" depart="176" />
<vehicle id="left_70" type="typeWE" route="left" depart="176" />
<vehicle id="up_71" type="typeWE" route="up" depart="177" />
<vehicle id="left_72" type="typeWE" route="left" depart="177" />
<vehicle id="down_73" type="typeWE" route="down" depart="179" />
<vehicle id="left_74" type="typeWE" route="left" depart="180" />
<vehicle id="left_75" type="typeWE" route="left" depart="181" />
<vehicle id="down_76" type="typeWE" route="down" depart="183" />
<vehicle id="up_right_77" type="typeWE" route="up_right" depart="185" />
<vehicle id="left_78" type="typeWE" route="left" depart="187" />
<vehicle id="up_79" type="typeWE" route="up" depart="194" />
<vehicle id="up_80" type="typeWE" route="up" depart="195" />
<vehicle id="right_81" type="typeWE" route="right" depart="197" />
<vehicle id="left_82" type="typeWE" route="left" depart="198" />
<vehicle id="up_83" type="typeWE" route="up" depart="202" />
<vehicle id="right_84" type="typeWE" route="right" depart="203" />
<vehicle id="right_85" type="typeWE" route="right" depart="207" />
<vehicle id="left_86" type="typeWE" route="left" depart="209" />
<vehicle id="left_87" type="typeWE" route="left" depart="211" />
<vehicle id="right_88" type="typeWE" route="right" depart="211" />
<vehicle id="left_down_89" type="typeWE" route="left_down" depart="213" />
<vehicle id="up_left_90" type="typeWE" route="up_left" depart="214" />
<vehicle id="left_down_91" type="typeWE" route="left_down" depart="215" />
<vehicle id="right_92" type="typeWE" route="right" depart="216" />
<vehicle id="left_93" type="typeWE" route="left" depart="220" />
<vehicle id="right_94" type="typeWE" route="right" depart="223" />
<vehicle id="right_95" type="typeWE" route="right" depart="227" />
<vehicle id="up_left_96" type="typeWE" route="up_left" depart="229" />
<vehicle id="left_down_97" type="typeWE" route="left_down" depart="229" />
<vehicle id="right_98" type="typeWE" route="right" depart="229" />
<vehicle id="right_99" type="typeWE" route="right" depart="233" />
<vehicle id="down_100" type="typeWE" route="down" depart="235" />
<vehicle id="left_101" type="typeWE" route="left" depart="235" />
<vehicle id="left_102" type="typeWE" route="left" depart="236" />
<vehicle id="right_103" type="typeWE" route="right" depart="240" />
<vehicle id="down_104" type="typeWE" route="down" depart="242" />
<vehicle id="left_105" type="typeWE" route="left" depart="243" />
<vehicle id="right_106" type="typeWE" route="right" depart="243" />
<vehicle id="left_107" type="typeWE" route="left" depart="246" />
<vehicle id="right_108" type="typeWE" route="right" depart="248" />
<vehicle id="up_109" type="typeWE" route="up" depart="249" />
<vehicle id="right_110" type="typeWE" route="right" depart="263" />
<vehicle id="up_111" type="typeWE" route="up" depart="264" />
<vehicle id="down_right_112" type="typeWE" route="down_right" depart="267" />
<vehicle id="left_down_113" type="typeWE" route="left_down" depart="267" />
<vehicle id="left_114" type="typeWE" route="left" depart="272" />
<vehicle id="up_right_115" type="typeWE" route="up_right" depart="276" />
<vehicle id="left_116" type="typeWE" route="left" depart="276" />
<vehicle id="down_117" type="typeWE" route="down" depart="277" />
<vehicle id="right_118" type="typeWE" route="right" depart="279" />
<vehicle id="left_119" type="typeWE" route="left" depart="282" />
<vehicle id="right_up_120" type="typeWE" route="right_up" depart="283" />
<vehicle id="left_121" type="typeWE" route="left" depart="285" />
<vehicle id="down_122" type="typeWE" route="down" depart="288" />
<vehicle id="right_123" type="typeWE" route="right" depart="288" />
<vehicle id="right_124" type="typeWE" route="right" depart="290" />
<vehicle id="up_right_125" type="typeWE" route="up_right" depart="293" />
<vehicle id="right_126" type="typeWE" route="right" depart="293" />
<vehicle id="down_left_127" type="typeWE" route="down_left" depart="309" />
<vehicle id="right_128" type="typeWE" route="right" depart="310" />
<vehicle id="left_down_129" type="typeWE" route="left_down" depart="311" />
<vehicle id="left_130" type="typeWE" route="left" depart="311" />
<vehicle id="left_131" type="typeWE" route="left" depart="314" />
<vehicle id="right_132" type="typeWE" route="right" depart="314" />
<vehicle id="left_133" type="typeWE" route="left" depart="316" />
<vehicle id="right_down_134" type="typeWE" route="right_down" depart="316" />
<vehicle id="down_left_135" type="typeWE" route="down_left" depart="320" />
<vehicle id="down_136" type="typeWE" route="down" depart="322" />
<vehicle id="left_137" type="typeWE" route="left" depart="328" />
<vehicle id="down_138" type="typeWE" route="down" depart="329" />
<vehicle id="up_right_139" type="typeWE" route="up_right" depart="336" />
<vehicle id="down_right_140" type="typeWE" route="down_right" depart="339" />
<vehicle id="left_141" type="typeWE" route="left" depart="339" />
<vehicle id="right_142" type="typeWE" route="right" depart="339" />
<vehicle id="right_down_143" type="typeWE" route="right_down" depart="341" />
<vehicle id="left_144" type="typeWE" route="left" depart="343" />
<vehicle id="up_145" type="typeWE" route="up" depart="345" />
<vehicle id="up_left_146" type="typeWE" route="up_left" depart="346" />
<vehicle id="left_147" type="typeWE" route="left" depart="349" />
<vehicle id="left_148" type="typeWE" route="left" depart="350" />
<vehicle id="left_149" type="typeWE" route="left" depart="358" />
<vehicle id="right_150" type="typeWE" route="right" depart="358" />
<vehicle id="up_151" type="typeWE" route="up" depart="359" />
<vehicle id="left_up_152" type="typeWE" route="left_up" depart="362" />
<vehicle id="right_153" type="typeWE" route="right" depart="362" />
<vehicle id="down_right_154" type="typeWE" route="down_right" depart="363" />
<vehicle id="left_down_155" type="typeWE" route="left_down" depart="363" />
<vehicle id="right_156" type="typeWE" route="right" depart="365" />
<vehicle id="right_157" type="typeWE" route="right" depart="370" />
<vehicle id="right_down_158" type="typeWE" route="right_down" depart="374" />
<vehicle id="right_159" type="typeWE" route="right" depart="376" />
<vehicle id="left_160" type="typeWE" route="left" depart="377" />
<vehicle id="right_161" type="typeWE" route="right" depart="378" />
<vehicle id="down_162" type="typeWE" route="down" depart="383" />
<vehicle id="left_163" type="typeWE" route="left" depart="384" />
<vehicle id="right_164" type="typeWE" route="right" depart="385" />
<vehicle id="left_165" type="typeWE" route="left" depart="391" />
<vehicle id="up_166" type="typeWE" route="up" depart="392" />
<vehicle id="up_167" type="typeWE" route="up" depart="394" />
<vehicle id="left_168" type="typeWE" route="left" depart="394" />
<vehicle id="up_169" type="typeWE" route="up" depart="403" />
<vehicle id="left_170" type="typeWE" route="left" depart="403" />
<vehicle id="left_171" type="typeWE" route="left" depart="407" />
<vehicle id="down_172" type="typeWE" route="down" depart="411" />
<vehicle id="right_173" type="typeWE" route="right" depart="411" />
<vehicle id="right_174" type="typeWE" route="right" depart="414" />
<vehicle id="left_175" type="typeWE" route="left" depart="416" />
<vehicle id="down_176" type="typeWE" route="down" depart="417" />
<vehicle id="left_177" type="typeWE" route="left" depart="417" />
<vehicle id="right_178" type="typeWE" route="right" depart="418" />
<vehicle id="left_179" type="typeWE" route="left" depart="421" />
<vehicle id="left_180" type="typeWE" route="left" depart="423" />
<vehicle id="up_181" type="typeWE" route="up" depart="425" />
<vehicle id="left_182" type="typeWE" route="left" depart="425" />
<vehicle id="left_183" type="typeWE" route="left" depart="426" />
<vehicle id="right_184" type="typeWE" route="right" depart="426" />
<vehicle id="right_185" type="typeWE" route="right" depart="431" />
<vehicle id="left_186" type="typeWE" route="left" depart="434" />
<vehicle id="left_187" type="typeWE" route="left" depart="435" />
<vehicle id="up_right_188" type="typeWE" route="up_right" depart="437" />
<vehicle id="left_189" type="typeWE" route="left" depart="437" />
<vehicle id="left_190" type="typeWE" route="left" depart="439" />
<vehicle id="left_191" type="typeWE" route="left" depart="443" />
<vehicle id="left_192" type="typeWE" route="left" depart="445" />
<vehicle id="left_193" type="typeWE" route="left" depart="452" />
<vehicle id="right_194" type="typeWE" route="right" depart="454" />
<vehicle id="down_left_195" type="typeWE" route="down_left" depart="458" />
<vehicle id="right_196" type="typeWE" route="right" depart="459" />
<vehicle id="right_197" type="typeWE" route="right" depart="462" />
<vehicle id="left_198" type="typeWE" route="left" depart="465" />
<vehicle id="left_199" type="typeWE" route="left" depart="466" />
<vehicle id="right_up_200" type="typeWE" route="right_up" depart="466" />
<vehicle id="left_201" type="typeWE" route="left" depart="468" />
<vehicle id="right_202" type="typeWE" route="right" depart="474" />
<vehicle id="down_right_203" type="typeWE" route="down_right" depart="476" />
<vehicle id="left_204" type="typeWE" route="left" depart="476" />
<vehicle id="down_205" type="typeWE" route="down" depart="479" />
<vehicle id="left_206" type="typeWE" route="left" depart="483" />
<vehicle id="right_207" type="typeWE" route="right" depart="483" />
<vehicle id="left_208" type="typeWE" route="left" depart="486" />
<vehicle id="right_209" type="typeWE" route="right" depart="489" />
<vehicle id="right_210" type="typeWE" route="right" depart="491" />
<vehicle id="down_211" type="typeWE" route="down" depart="492" />
<vehicle id="right_212" type="typeWE" route="right" depart="494" />
<vehicle id="left_213" type="typeWE" route="left" depart="496" />
<vehicle id="up_214" type="typeWE" route="up" depart="497" />
<vehicle id="down_right_215" type="typeWE" route="down_right" depart="497" />
<vehicle id="right_down_216" type="typeWE" route="right_down" depart="501" />
<vehicle id="right_217" type="typeWE" route="right" depart="504" />
<vehicle id="right_218" type="typeWE" route="right" depart="505" />
<vehicle id="left_219" type="typeWE" route="left" depart="507" />
<vehicle id="left_220" type="typeWE" route="left" depart="509" />
<vehicle id="left_221" type="typeWE" route="left" depart="514" />
<vehicle id="right_222" type="typeWE" route="right" depart="514" />
<vehicle id="up_223" type="typeWE" route="up" depart="517" />
<vehicle id="left_224" type="typeWE" route="left" depart="517" />
<vehicle id="right_225" type="typeWE" route="right" depart="517" />
<vehicle id="up_226" type="typeWE" route="up" depart="519" />
<vehicle id="left_227" type="typeWE" route="left" depart="523" />
<vehicle id="left_228" type="typeWE" route="left" depart="528" />
<vehicle id="left_229" type="typeWE" route="left" depart="529" />
<vehicle id="left_230" type="typeWE" route="left" depart="541" />
<vehicle id="right_231" type="typeWE" route="right" depart="544" />
<vehicle id="left_232" type="typeWE" route="left" depart="545" />
<vehicle id="left_233" type="typeWE" route="left" depart="551" />
<vehicle id="right_up_234" type="typeWE" route="right_up" depart="552" />
<vehicle id="left_235" type="typeWE" route="left" depart="553" />
<vehicle id="right_236" type="typeWE" route="right" depart="553" />
<vehicle id="left_237" type="typeWE" route="left" depart="555" />
<vehicle id="left_238" type="typeWE" route="left" depart="558" />
<vehicle id="down_right_239" type="typeWE" route="down_right" depart="561" />
<vehicle id="left_240" type="typeWE" route="left" depart="562" />
<vehicle id="right_241" type="typeWE" route="right" depart="563" />
<vehicle id="right_242" type="typeWE" route="right" depart="564" />
<vehicle id="left_243" type="typeWE" route="left" depart="570" />
<vehicle id="right_244" type="typeWE" route="right" depart="570" />
<vehicle id="right_245" type="typeWE" route="right" depart="572" />
<vehicle id="left_246" type="typeWE" route="left" depart="573" />
<vehicle id="right_247" type="typeWE" route="right" depart="573" />
<vehicle id="left_248" type="typeWE" route="left" depart="574" />
<vehicle id="up_249" type="typeWE" route="up" depart="576" />
<vehicle id="up_250" type="typeWE" route="up" depart="578" />
<vehicle id="left_251" type="typeWE" route="left" depart="581" />
<vehicle id="left_252" type="typeWE" route="left" depart="583" />
<vehicle id="right_253" type="typeWE" route="right" depart="583" />
<vehicle id="left_254" type="typeWE" route="left" depart="585" />
<vehicle id="right_255" type="typeWE" route="right" depart="585" />
<vehicle id="left_256" type="typeWE" route="left" depart="586" />
<vehicle id="right_257" type="typeWE" route="right" depart="590" />
<vehicle id="right_258" type="typeWE" route="right" depart="592" />
<vehicle id="left_259" type="typeWE" route="left" depart="595" />
<vehicle id="right_260" type="typeWE" route="right" depart="596" />
<vehicle id="right_up_261" type="typeWE" route="right_up" depart="597" />
<vehicle id="down_right_262" type="typeWE" route="down_right" depart="598" />
<vehicle id="down_right_263" type="typeWE" route="down_right" depart="601" />
<vehicle id="up_264" type="typeWE" route="up" depart="603" />
<vehicle id="right_265" type="typeWE" route="right" depart="603" />
<vehicle id="right_266" type="typeWE" route="right" depart="605" />
<vehicle id="left_up_267" type="typeWE" route="left_up" depart="608" />
<vehicle id="left_268" type="typeWE" route="left" depart="608" />
<vehicle id="left_269" type="typeWE" route="left" depart="611" />
<vehicle id="right_270" type="typeWE" route="right" depart="612" />
<vehicle id="right_271" type="typeWE" route="right" depart="614" />
<vehicle id="right_272" type="typeWE" route="right" depart="615" />
<vehicle id="up_273" type="typeWE" route="up" depart="618" />
<vehicle id="right_274" type="typeWE" route="right" depart="619" />
<vehicle id="right_275" type="typeWE" route="right" depart="622" />
<vehicle id="right_276" type="typeWE" route="right" depart="627" />
<vehicle id="right_down_277" type="typeWE" route="right_down" depart="629" />
<vehicle id="left_up_278" type="typeWE" route="left_up" depart="632" />
<vehicle id="right_279" type="typeWE" route="right" depart="634" />
<vehicle id="up_280" type="typeWE" route="up" depart="635" />
<vehicle id="right_281" type="typeWE" route="right" depart="635" />
<vehicle id="right_282" type="typeWE" route="right" depart="637" />
<vehicle id="left_283" type="typeWE" route="left" depart="642" />
<vehicle id="right_284" type="typeWE" route="right" depart="643" />
<vehicle id="left_285" type="typeWE" route="left" depart="645" />
<vehicle id="right_down_286" type="typeWE" route="right_down" depart="645" />
<vehicle id="right_287" type="typeWE" route="right" depart="647" />
<vehicle id="right_288" type="typeWE" route="right" depart="648" />
<vehicle id="right_down_289" type="typeWE" route="right_down" depart="654" />
<vehicle id="right_290" type="typeWE" route="right" depart="654" />
<vehicle id="left_291" type="typeWE" route="left" depart="658" />
<vehicle id="up_292" type="typeWE" route="up" depart="665" />
<vehicle id="right_293" type="typeWE" route="right" depart="667" />
<vehicle id="up_right_294" type="typeWE" route="up_right" depart="668" />
<vehicle id="left_up_295" type="typeWE" route="left_up" depart="668" />
<vehicle id="left_296" type="typeWE" route="left" depart="671" />
<vehicle id="left_297" type="typeWE" route="left" depart="673" />
<vehicle id="right_298" type="typeWE" route="right" depart="677" />
<vehicle id="down_left_299" type="typeWE" route="down_left" depart="678" />
<vehicle id="left_300" type="typeWE" route="left" depart="680" />
<vehicle id="right_301" type="typeWE" route="right" depart="681" />
<vehicle id="left_302" type="typeWE" route="left" depart="683" />
<vehicle id="right_303" type="typeWE" route="right" depart="684" />
<vehicle id="right_304" type="typeWE" route="right" depart="687" />
<vehicle id="down_left_305" type="typeWE" route="down_left" depart="692" />
<vehicle id="right_306" type="typeWE" route="right" depart="694" />
<vehicle id="down_307" type="typeWE" route="down" depart="696" />
<vehicle id="left_308" type="typeWE" route="left" depart="696" />
<vehicle id="right_309" type="typeWE" route="right" depart="696" />
<vehicle id="left_up_310" type="typeWE" route="left_up" depart="697" />
<vehicle id="right_up_311" type="typeWE" route="right_up" depart="699" />
<vehicle id="right_312" type="typeWE" route="right" depart="705" />
<vehicle id="right_313" type="typeWE" route="right" depart="707" />
<vehicle id="left_314" type="typeWE" route="left" depart="708" />
<vehicle id="up_315" type="typeWE" route="up" depart="712" />
<vehicle id="right_316" type="typeWE" route="right" depart="714" />
<vehicle id="left_317" type="typeWE" route="left" depart="716" />
<vehicle id="left_318" type="typeWE" route="left" depart="717" />
<vehicle id="right_down_319" type="typeWE" route="right_down" depart="717" />
<vehicle id="down_right_320" type="typeWE" route="down_right" depart="725" />
<vehicle id="left_321" type="typeWE" route="left" depart="729" />
<vehicle id="right_322" type="typeWE" route="right" depart="730" />
<vehicle id="right_323" type="typeWE" route="right" depart="732" />
<vehicle id="down_324" type="typeWE" route="down" depart="733" />
<vehicle id="right_325" type="typeWE" route="right" depart="735" />
<vehicle id="left_up_326" type="typeWE" route="left_up" depart="736" />
<vehicle id="right_down_327" type="typeWE" route="right_down" depart="739" />
<vehicle id="right_328" type="typeWE" route="right" depart="739" />
<vehicle id="left_329" type="typeWE" route="left" depart="741" />
<vehicle id="right_330" type="typeWE" route="right" depart="743" />
<vehicle id="up_331" type="typeWE" route="up" depart="744" />
<vehicle id="left_down_332" type="typeWE" route="left_down" depart="748" />
<vehicle id="down_333" type="typeWE" route="down" depart="756" />
<vehicle id="right_334" type="typeWE" route="right" depart="760" />
<vehicle id="up_right_335" type="typeWE" route="up_right" depart="762" />
<vehicle id="right_down_336" type="typeWE" route="right_down" depart="763" />
<vehicle id="up_337" type="typeWE" route="up" depart="765" />
<vehicle id="left_338" type="typeWE" route="left" depart="767" />
<vehicle id="right_down_339" type="typeWE" route="right_down" depart="769" />
<vehicle id="right_down_340" type="typeWE" route="right_down" depart="770" />
<vehicle id="left_341" type="typeWE" route="left" depart="772" />
<vehicle id="right_342" type="typeWE" route="right" depart="773" />
<vehicle id="right_343" type="typeWE" route="right" depart="775" />
<vehicle id="right_344" type="typeWE" route="right" depart="776" />
<vehicle id="right_down_345" type="typeWE" route="right_down" depart="777" />
<vehicle id="right_346" type="typeWE" route="right" depart="778" />
<vehicle id="left_347" type="typeWE" route="left" depart="782" />
<vehicle id="down_348" type="typeWE" route="down" depart="789" />
<vehicle id="left_349" type="typeWE" route="left" depart="790" />
<vehicle id="right_350" type="typeWE" route="right" depart="792" />
<vehicle id="left_351" type="typeWE" route="left" depart="793" />
<vehicle id="down_352" type="typeWE" route="down" depart="796" />
<vehicle id="left_353" type="typeWE" route="left" depart="798" />
<vehicle id="right_354" type="typeWE" route="right" depart="798" />
<vehicle id="up_355" type="typeWE" route="up" depart="801" />
<vehicle id="right_356" type="typeWE" route="right" depart="802" />
<vehicle id="left_357" type="typeWE" route="left" depart="803" />
<vehicle id="right_358" type="typeWE" route="right" depart="804" />
<vehicle id="right_359" type="typeWE" route="right" depart="806" />
<vehicle id="left_360" type="typeWE" route="left" depart="808" />
<vehicle id="right_361" type="typeWE" route="right" depart="808" />
<vehicle id="down_right_362" type="typeWE" route="down_right" depart="809" />
<vehicle id="right_363" type="typeWE" route="right" depart="809" />
<vehicle id="left_364" type="typeWE" route="left" depart="812" />
<vehicle id="down_365" type="typeWE" route="down" depart="813" />
<vehicle id="right_down_366" type="typeWE" route="right_down" depart="814" />
<vehicle id="up_right_367" type="typeWE" route="up_right" depart="817" />
<vehicle id="down_368" type="typeWE" route="down" depart="817" />
<vehicle id="left_369" type="typeWE" route="left" depart="817" />
<vehicle id="right_370" type="typeWE" route="right" depart="825" />
<vehicle id="left_371" type="typeWE" route="left" depart="829" />
<vehicle id="right_372" type="typeWE" route="right" depart="829" />
<vehicle id="right_373" type="typeWE" route="right" depart="831" />
<vehicle id="left_374" type="typeWE" route="left" depart="832" />
<vehicle id="left_375" type="typeWE" route="left" depart="833" />
<vehicle id="right_376" type="typeWE" route="right" depart="837" />
<vehicle id="left_377" type="typeWE" route="left" depart="838" />
<vehicle id="left_378" type="typeWE" route="left" depart="840" />
<vehicle id="left_379" type="typeWE" route="left" depart="841" />
<vehicle id="left_380" type="typeWE" route="left" depart="842" />
<vehicle id="left_381" type="typeWE" route="left" depart="849" />
<vehicle id="left_382" type="typeWE" route="left" depart="850" />
<vehicle id="down_383" type="typeWE" route="down" depart="853" />
<vehicle id="left_384" type="typeWE" route="left" depart="854" />
<vehicle id="right_385" type="typeWE" route="right" depart="856" />
<vehicle id="left_386" type="typeWE" route="left" depart="857" />
<vehicle id="right_387" type="typeWE" route="right" depart="858" />
<vehicle id="right_388" type="typeWE" route="right" depart="859" />
<vehicle id="right_down_389" type="typeWE" route="right_down" depart="865" />
<vehicle id="right_390" type="typeWE" route="right" depart="865" />
<vehicle id="down_right_391" type="typeWE" route="down_right" depart="869" />
<vehicle id="left_up_392" type="typeWE" route="left_up" depart="870" />
<vehicle id="right_393" type="typeWE" route="right" depart="872" />
<vehicle id="right_394" type="typeWE" route="right" depart="877" />
<vehicle id="right_395" type="typeWE" route="right" depart="878" />
<vehicle id="right_396" type="typeWE" route="right" depart="881" />
<vehicle id="left_397" type="typeWE" route="left" depart="883" />
<vehicle id="right_up_398" type="typeWE" route="right_up" depart="884" />
<vehicle id="right_399" type="typeWE" route="right" depart="885" />
<vehicle id="left_400" type="typeWE" route="left" depart="886" />
<vehicle id="down_left_401" type="typeWE" route="down_left" depart="889" />
<vehicle id="left_402" type="typeWE" route="left" depart="891" />
<vehicle id="right_403" type="typeWE" route="right" depart="893" />
<vehicle id="left_up_404" type="typeWE" route="left_up" depart="897" />
<vehicle id="left_405" type="typeWE" route="left" depart="897" />
<vehicle id="left_406" type="typeWE" route="left" depart="899" />
<vehicle id="up_right_407" type="typeWE" route="up_right" depart="903" />
<vehicle id="right_408" type="typeWE" route="right" depart="906" />
<vehicle id="down_409" type="typeWE" route="down" depart="908" />
<vehicle id="left_up_410" type="typeWE" route="left_up" depart="909" />
<vehicle id="left_up_411" type="typeWE" route="left_up" depart="913" />
<vehicle id="right_412" type="typeWE" route="right" depart="918" />
<vehicle id="up_413" type="typeWE" route="up" depart="919" />
<vehicle id="right_414" type="typeWE" route="right" depart="921" />
<vehicle id="right_415" type="typeWE" route="right" depart="924" />
<vehicle id="right_416" type="typeWE" route="right" depart="925" />
<vehicle id="right_417" type="typeWE" route="right" depart="928" />
<vehicle id="left_418" type="typeWE" route="left" depart="930" />