<routes>
        <vType id="typeWE" accel="0.8" decel="4.5" sigma="0.5" length="5" minGap="2.5" maxSpeed="16.67" guiShape="passenger"/>
	<vType id="typeNS" accel="0.8" decel="4.5" sigma="0.5" length="5" minGap="2.5" maxSpeed="16.67" guiShape="passenger"/>
	<route id="left" edges="366845096#0 366845096#1 366845096#20 366845096#22 366845096#3 366845096#4 366845096#5"/>
	<route id="left_up" edges="366845096#0 366845096#1 366845096#20 366845096#22 -157076458#1 -157076458#0"/>
	<route id="left_down" edges="366845096#0 366845096#1 366845096#20 366845096#22 -26446721#2 -26446721#1 -26446721#0"/>
	<route id="right" edges="-366845096#5 -366845096#4 -366845096#30 -366845096#32 -366845096#2 -366845096#1 -366845096#0 "/>
	<route id="right_up" edges="-366845096#5 -366845096#4 -366845096#30 -366845096#32 -157076458#1 -157076458#0 "/>
	<route id="right_down" edges="-366845096#5 -366845096#4 -366845096#30 -366845096#32 -26446721#2 -26446721#1 -26446721#0"/>
	<route id="up" edges="157076458#0 157076458#1 -26446721#2 -26446721#1 -26446721#0"/>
	<route id="up_left" edges="157076458#0 157076458#1 -366845096#2 -366845096#1 -366845096#0"/>
	<route id="down" edges="26446721#0 26446721#1 26446721#2 -157076458#1 -157076458#0"/>
	<route id="down_right" edges="26446721#0 26446721#1 26446721#2 366845096#3 366845096#4 366845096#5"/>
    <vehicle id="right_0" type="typeWE" route="left_down" depart="0" />
    <vehicle id="right_1" type="typeWE" route="left_down" depart="1" />
    <vehicle id="right_2" type="typeWE" route="right_down" depart="2" />
    <vehicle id="up_3" type="typeWE" route="down" depart="3" color="1,0,0"/>
    <vehicle id="right_4" type="typeWE" route="left" depart="4" />
    <vehicle id="up_5" type="typeWE" route="down_right" depart="4" color="1,0,0"/>
    <vehicle id="right_6" type="typeWE" route="right_down" depart="8" />
    <vehicle id="up_7" type="typeWE" route="down_right" depart="8" color="1,0,0"/>
    <vehicle id="down_8" type="typeWE" route="up_left" depart="8" color="1,0,0"/>
    <vehicle id="right_9" type="typeWE" route="right_up" depart="11" />
    <vehicle id="right_10" type="typeWE" route="right_down" depart="13" />
    <vehicle id="right_11" type="typeWE" route="right" depart="16" />
    <vehicle id="right_12" type="typeWE" route="right" depart="17" />
    <vehicle id="left_13" type="typeWE" route="left_up" depart="17" />
    <vehicle id="up_14" type="typeWE" route="down" depart="17" color="1,0,0"/>
    <vehicle id="right_15" type="typeWE" route="left" depart="18" />
    <vehicle id="right_16" type="typeWE" route="left" depart="19" />
    <vehicle id="right_17" type="typeWE" route="left" depart="20" />
    <vehicle id="right_18" type="typeWE" route="right" depart="23" />
    <vehicle id="down_19" type="typeWE" route="up_left" depart="23" color="1,0,0"/>
    <vehicle id="right_20" type="typeWE" route="right" depart="24" />
    <vehicle id="down_21" type="typeWE" route="up" depart="24" color="1,0,0"/>
    <vehicle id="right_22" type="typeWE" route="left_down" depart="25" />
    <vehicle id="right_23" type="typeWE" route="right" depart="26" />
    <vehicle id="right_24" type="typeWE" route="right" depart="27" />
    <vehicle id="right_25" type="typeWE" route="left" depart="27" />
    <vehicle id="left_26" type="typeWE" route="left_up" depart="28" />
    <vehicle id="right_27" type="typeWE" route="right_down" depart="29" />
    <vehicle id="right_28" type="typeWE" route="left_down" depart="29" />
    <vehicle id="right_29" type="typeWE" route="right_down" depart="30" />
    <vehicle id="left_30" type="typeWE" route="left_up" depart="32" />
    <vehicle id="right_31" type="typeWE" route="right" depart="34" />
    <vehicle id="right_32" type="typeWE" route="right" depart="37" />
    <vehicle id="right_33" type="typeWE" route="right_up" depart="38" />
    <vehicle id="up_34" type="typeWE" route="down" depart="38" color="1,0,0"/>
    <vehicle id="right_35" type="typeWE" route="right" depart="41" />
    <vehicle id="right_36" type="typeWE" route="right" depart="42" />
    <vehicle id="right_37" type="typeWE" route="right_down" depart="43" />
    <vehicle id="right_38" type="typeWE" route="right_up" depart="44" />
    <vehicle id="right_39" type="typeWE" route="left" depart="46" />
    <vehicle id="right_40" type="typeWE" route="left" depart="47" />
    <vehicle id="down_41" type="typeWE" route="up_left" depart="47" color="1,0,0"/>
    <vehicle id="right_42" type="typeWE" route="left" depart="49" />
    <vehicle id="right_43" type="typeWE" route="left" depart="50" />
    <vehicle id="right_44" type="typeWE" route="right_down" depart="51" />
    <vehicle id="right_45" type="typeWE" route="left" depart="51" />
    <vehicle id="right_46" type="typeWE" route="right" depart="52" />
    <vehicle id="right_47" type="typeWE" route="right" depart="53" />
    <vehicle id="right_48" type="typeWE" route="left" depart="53" />
    <vehicle id="up_49" type="typeWE" route="down_right" depart="54" color="1,0,0"/>
    <vehicle id="right_50" type="typeWE" route="right_down" depart="56" />
    <vehicle id="right_51" type="typeWE" route="right" depart="58" />
    <vehicle id="right_52" type="typeWE" route="left" depart="60" />
    <vehicle id="right_53" type="typeWE" route="right" depart="62" />
    <vehicle id="right_54" type="typeWE" route="left" depart="62" />
    <vehicle id="right_55" type="typeWE" route="right_down" depart="63" />
    <vehicle id="right_56" type="typeWE" route="left" depart="63" />
    <vehicle id="right_57" type="typeWE" route="left_down" depart="65" />
    <vehicle id="right_58" type="typeWE" route="right" depart="66" />
    <vehicle id="right_59" type="typeWE" route="right" depart="68" />
    <vehicle id="right_60" type="typeWE" route="left" depart="69" />
    <vehicle id="up_61" type="typeWE" route="down_right" depart="73" color="1,0,0"/>
    <vehicle id="right_62" type="typeWE" route="right" depart="75" />
    <vehicle id="down_63" type="typeWE" route="up" depart="75" color="1,0,0"/>
    <vehicle id="left_64" type="typeWE" route="left_up" depart="77" />
    <vehicle id="up_65" type="typeWE" route="down_right" depart="77" color="1,0,0"/>
    <vehicle id="right_66" type="typeWE" route="left" depart="78" />
    <vehicle id="right_67" type="typeWE" route="left_down" depart="79" />
    <vehicle id="right_68" type="typeWE" route="right_up" depart="80" />
    <vehicle id="down_69" type="typeWE" route="up_left" depart="80" color="1,0,0"/>
    <vehicle id="right_70" type="typeWE" route="left" depart="85" />
    <vehicle id="right_71" type="typeWE" route="left" depart="86" />
    <vehicle id="right_72" type="typeWE" route="right_down" depart="87" />
    <vehicle id="down_73" type="typeWE" route="up" depart="87" color="1,0,0"/>
    <vehicle id="up_74" type="typeWE" route="down" depart="90" color="1,0,0"/>
    <vehicle id="right_75" type="typeWE" route="left" depart="93" />
    <vehicle id="right_76" type="typeWE" route="left_down" depart="94" />
    <vehicle id="right_77" type="typeWE" route="right_up" depart="95" />
    <vehicle id="up_78" type="typeWE" route="down" depart="95" color="1,0,0"/>
    <vehicle id="up_79" type="typeWE" route="down_right" depart="97" color="1,0,0"/>
    <vehicle id="right_80" type="typeWE" route="right_down" depart="100" />
    <vehicle id="right_81" type="typeWE" route="left" depart="100" />
    <vehicle id="right_82" type="typeWE" route="left" depart="101" />
    <vehicle id="up_83" type="typeWE" route="down" depart="101" color="1,0,0"/>
    <vehicle id="right_84" type="typeWE" route="right_down" depart="102" />
    <vehicle id="up_85" type="typeWE" route="down" depart="103" color="1,0,0"/>
    <vehicle id="right_86" type="typeWE" route="right" depart="104" />
    <vehicle id="up_87" type="typeWE" route="down" depart="104" color="1,0,0"/>
    <vehicle id="down_88" type="typeWE" route="up" depart="106" color="1,0,0"/>
    <vehicle id="down_89" type="typeWE" route="up" depart="110" color="1,0,0"/>
    <vehicle id="right_90" type="typeWE" route="right" depart="111" />
    <vehicle id="up_91" type="typeWE" route="down" depart="111" color="1,0,0"/>
    <vehicle id="right_92" type="typeWE" route="right" depart="112" />
    <vehicle id="right_93" type="typeWE" route="right_up" depart="113" />
    <vehicle id="right_94" type="typeWE" route="right_down" depart="115" />
    <vehicle id="right_95" type="typeWE" route="right_down" depart="118" />
    <vehicle id="right_96" type="typeWE" route="left" depart="118" />
    <vehicle id="left_97" type="typeWE" route="left_up" depart="120" />
    <vehicle id="right_98" type="typeWE" route="right" depart="121" />
    <vehicle id="right_99" type="typeWE" route="right" depart="122" />
    <vehicle id="left_100" type="typeWE" route="left_up" depart="123" />
    <vehicle id="up_101" type="typeWE" route="down" depart="124" color="1,0,0"/>
    <vehicle id="down_102" type="typeWE" route="up_left" depart="124" color="1,0,0"/>
    <vehicle id="down_103" type="typeWE" route="up" depart="125" color="1,0,0"/>
    <vehicle id="left_104" type="typeWE" route="left_up" depart="129" />
    <vehicle id="right_105" type="typeWE" route="right_down" depart="130" />
    <vehicle id="right_106" type="typeWE" route="left" depart="130" />
    <vehicle id="up_107" type="typeWE" route="down_right" depart="134" color="1,0,0"/>
    <vehicle id="down_108" type="typeWE" route="up" depart="135" color="1,0,0"/>
    <vehicle id="right_109" type="typeWE" route="right_down" depart="137" />
    <vehicle id="right_110" type="typeWE" route="right" depart="138" />
    <vehicle id="up_111" type="typeWE" route="down" depart="139" color="1,0,0"/>
    <vehicle id="up_112" type="typeWE" route="down" depart="141" color="1,0,0"/>
    <vehicle id="right_113" type="typeWE" route="right" depart="149" />
    <vehicle id="left_114" type="typeWE" route="left_up" depart="149" />
    <vehicle id="right_115" type="typeWE" route="right" depart="150" />
    <vehicle id="up_116" type="typeWE" route="down" depart="150" color="1,0,0"/>
    <vehicle id="right_117" type="typeWE" route="left" depart="152" />
    <vehicle id="right_118" type="typeWE" route="left" depart="156" />
    <vehicle id="right_119" type="typeWE" route="left_down" depart="158" />
    <vehicle id="up_120" type="typeWE" route="down" depart="160" color="1,0,0"/>
    <vehicle id="right_121" type="typeWE" route="right" depart="163" />
    <vehicle id="right_122" type="typeWE" route="right_down" depart="166" />
    <vehicle id="up_123" type="typeWE" route="down" depart="167" color="1,0,0"/>
    <vehicle id="down_124" type="typeWE" route="up" depart="168" color="1,0,0"/>
    <vehicle id="down_125" type="typeWE" route="up" depart="170" color="1,0,0"/>
    <vehicle id="right_126" type="typeWE" route="left_down" depart="171" />
    <vehicle id="right_127" type="typeWE" route="left" depart="172" />
    <vehicle id="right_128" type="typeWE" route="left" depart="178" />
    <vehicle id="right_129" type="typeWE" route="right" depart="183" />
    <vehicle id="left_130" type="typeWE" route="left_up" depart="183" />
    <vehicle id="right_131" type="typeWE" route="left_down" depart="186" />
    <vehicle id="up_132" type="typeWE" route="down" depart="188" color="1,0,0"/>
    <vehicle id="left_133" type="typeWE" route="left_up" depart="190" />
    <vehicle id="up_134" type="typeWE" route="down" depart="190" color="1,0,0"/>
    <vehicle id="left_135" type="typeWE" route="left_up" depart="191" />
    <vehicle id="up_136" type="typeWE" route="down" depart="193" color="1,0,0"/>
    <vehicle id="right_137" type="typeWE" route="right" depart="196" />
    <vehicle id="up_138" type="typeWE" route="down" depart="196" color="1,0,0"/>
    <vehicle id="up_139" type="typeWE" route="down" depart="197" color="1,0,0"/>
    <vehicle id="right_140" type="typeWE" route="right" depart="199" />
    <vehicle id="right_141" type="typeWE" route="right_up" depart="200" />
    <vehicle id="right_142" type="typeWE" route="left_down" depart="200" />
    <vehicle id="right_143" type="typeWE" route="right" depart="201" />
    <vehicle id="right_144" type="typeWE" route="left_down" depart="201" />
    <vehicle id="right_145" type="typeWE" route="right_up" depart="202" />
    <vehicle id="up_146" type="typeWE" route="down_right" depart="202" color="1,0,0"/>
    <vehicle id="right_147" type="typeWE" route="right_up" depart="203" />
    <vehicle id="right_148" type="typeWE" route="left" depart="203" />
    <vehicle id="up_149" type="typeWE" route="down" depart="204" color="1,0,0"/>
    <vehicle id="right_150" type="typeWE" route="right" depart="205" />
    <vehicle id="right_151" type="typeWE" route="right" depart="206" />
    <vehicle id="right_152" type="typeWE" route="right_down" depart="207" />
    <vehicle id="up_153" type="typeWE" route="down_right" depart="207" color="1,0,0"/>
    <vehicle id="up_154" type="typeWE" route="down" depart="209" color="1,0,0"/>
    <vehicle id="right_155" type="typeWE" route="left" depart="211" />
    <vehicle id="down_156" type="typeWE" route="up" depart="211" color="1,0,0"/>
    <vehicle id="right_157" type="typeWE" route="right_up" depart="213" />
    <vehicle id="right_158" type="typeWE" route="left" depart="213" />
    <vehicle id="up_159" type="typeWE" route="down" depart="214" color="1,0,0"/>
    <vehicle id="left_160" type="typeWE" route="left_up" depart="217" />
    <vehicle id="right_161" type="typeWE" route="right" depart="220" />
    <vehicle id="up_162" type="typeWE" route="down" depart="221" color="1,0,0"/>
    <vehicle id="right_163" type="typeWE" route="left_down" depart="222" />
    <vehicle id="up_164" type="typeWE" route="down_right" depart="224" color="1,0,0"/>
    <vehicle id="right_165" type="typeWE" route="right" depart="227" />
    <vehicle id="right_166" type="typeWE" route="right" depart="228" />
    <vehicle id="right_167" type="typeWE" route="left_down" depart="228" />
    <vehicle id="right_168" type="typeWE" route="left_down" depart="229" />
    <vehicle id="down_169" type="typeWE" route="up" depart="230" color="1,0,0"/>
    <vehicle id="right_170" type="typeWE" route="right_down" depart="231" />
    <vehicle id="down_171" type="typeWE" route="up_left" depart="232" color="1,0,0"/>
    <vehicle id="right_172" type="typeWE" route="left_down" depart="234" />
    <vehicle id="right_173" type="typeWE" route="right_up" depart="236" />
    <vehicle id="right_174" type="typeWE" route="right_down" depart="238" />
    <vehicle id="right_175" type="typeWE" route="right" depart="239" />
    <vehicle id="down_176" type="typeWE" route="up" depart="241" color="1,0,0"/>
    <vehicle id="up_177" type="typeWE" route="down" depart="242" color="1,0,0"/>
    <vehicle id="right_178" type="typeWE" route="left_down" depart="243" />
    <vehicle id="right_179" type="typeWE" route="right_down" depart="247" />
    <vehicle id="left_180" type="typeWE" route="left_up" depart="248" />
    <vehicle id="right_181" type="typeWE" route="left" depart="249" />
    <vehicle id="down_182" type="typeWE" route="up_left" depart="250" color="1,0,0"/>
    <vehicle id="right_183" type="typeWE" route="right" depart="253" />
    <vehicle id="right_184" type="typeWE" route="right_up" depart="259" />
    <vehicle id="right_185" type="typeWE" route="right" depart="260" />
    <vehicle id="right_186" type="typeWE" route="left_down" depart="260" />
    <vehicle id="right_187" type="typeWE" route="left" depart="261" />
    <vehicle id="right_188" type="typeWE" route="right" depart="268" />
    <vehicle id="right_189" type="typeWE" route="left" depart="269" />
    <vehicle id="left_190" type="typeWE" route="left_up" depart="270" />
    <vehicle id="up_191" type="typeWE" route="down" depart="271" color="1,0,0"/>
    <vehicle id="left_192" type="typeWE" route="left_up" depart="274" />
    <vehicle id="down_193" type="typeWE" route="up_left" depart="275" color="1,0,0"/>
    <vehicle id="right_194" type="typeWE" route="left" depart="276" />
    <vehicle id="down_195" type="typeWE" route="up" depart="276" color="1,0,0"/>
    <vehicle id="right_196" type="typeWE" route="left_down" depart="277" />
    <vehicle id="right_197" type="typeWE" route="left" depart="278" />
    <vehicle id="up_198" type="typeWE" route="down" depart="278" color="1,0,0"/>
    <vehicle id="down_199" type="typeWE" route="up" depart="278" color="1,0,0"/>
    <vehicle id="right_200" type="typeWE" route="right" depart="281" />
    <vehicle id="up_201" type="typeWE" route="down" depart="282" color="1,0,0"/>
    <vehicle id="right_202" type="typeWE" route="right" depart="283" />
    <vehicle id="right_203" type="typeWE" route="right" depart="284" />
    <vehicle id="up_204" type="typeWE" route="down_right" depart="284" color="1,0,0"/>
    <vehicle id="down_205" type="typeWE" route="up" depart="284" color="1,0,0"/>
    <vehicle id="right_206" type="typeWE" route="left" depart="286" />
    <vehicle id="right_207" type="typeWE" route="right" depart="287" />
    <vehicle id="down_208" type="typeWE" route="up" depart="289" color="1,0,0"/>
    <vehicle id="down_209" type="typeWE" route="up" depart="290" color="1,0,0"/>
    <vehicle id="right_210" type="typeWE" route="left" depart="292" />
    <vehicle id="up_211" type="typeWE" route="down" depart="293" color="1,0,0"/>
    <vehicle id="up_212" type="typeWE" route="down_right" depart="295" color="1,0,0"/>
    <vehicle id="right_213" type="typeWE" route="right_down" depart="299" />
    <vehicle id="right_214" type="typeWE" route="right" depart="302" />
    <vehicle id="down_215" type="typeWE" route="up" depart="302" color="1,0,0"/>
    <vehicle id="down_216" type="typeWE" route="up" depart="303" color="1,0,0"/>
    <vehicle id="down_217" type="typeWE" route="up_left" depart="305" color="1,0,0"/>
    <vehicle id="right_218" type="typeWE" route="right_up" depart="306" />
    <vehicle id="up_219" type="typeWE" route="down_right" depart="307" color="1,0,0"/>
    <vehicle id="right_220" type="typeWE" route="right" depart="309" />
    <vehicle id="down_221" type="typeWE" route="up_left" depart="311" color="1,0,0"/>
    <vehicle id="right_222" type="typeWE" route="right_down" depart="312" />
    <vehicle id="right_223" type="typeWE" route="right" depart="316" />
    <vehicle id="left_224" type="typeWE" route="left_up" depart="317" />
    <vehicle id="right_225" type="typeWE" route="right_down" depart="321" />
    <vehicle id="right_226" type="typeWE" route="right_down" depart="325" />
    <vehicle id="right_227" type="typeWE" route="right_up" depart="326" />
    <vehicle id="right_228" type="typeWE" route="left" depart="328" />
    <vehicle id="right_229" type="typeWE" route="left" depart="329" />
    <vehicle id="right_230" type="typeWE" route="left_down" depart="332" />
    <vehicle id="down_231" type="typeWE" route="up" depart="333" color="1,0,0"/>
    <vehicle id="right_232" type="typeWE" route="left" depart="335" />
    <vehicle id="up_233" type="typeWE" route="down_right" depart="335" color="1,0,0"/>
    <vehicle id="down_234" type="typeWE" route="up" depart="341" color="1,0,0"/>
    <vehicle id="right_235" type="typeWE" route="right_up" depart="345" />
    <vehicle id="right_236" type="typeWE" route="left_down" depart="345" />
    <vehicle id="right_237" type="typeWE" route="right_down" depart="347" />
    <vehicle id="right_238" type="typeWE" route="left" depart="347" />
    <vehicle id="right_239" type="typeWE" route="right" depart="348" />
    <vehicle id="right_240" type="typeWE" route="right_up" depart="350" />
    <vehicle id="right_241" type="typeWE" route="right" depart="351" />
    <vehicle id="right_242" type="typeWE" route="left" depart="352" />
    <vehicle id="right_243" type="typeWE" route="left" depart="355" />
    <vehicle id="up_244" type="typeWE" route="down" depart="357" color="1,0,0"/>
    <vehicle id="right_245" type="typeWE" route="right_up" depart="358" />
    <vehicle id="right_246" type="typeWE" route="right" depart="361" />
    <vehicle id="right_247" type="typeWE" route="right_up" depart="362" />
    <vehicle id="right_248" type="typeWE" route="left_down" depart="364" />
    <vehicle id="down_249" type="typeWE" route="up_left" depart="366" color="1,0,0"/>
    <vehicle id="right_250" type="typeWE" route="right_up" depart="370" />
    <vehicle id="right_251" type="typeWE" route="left_down" depart="370" />
    <vehicle id="right_252" type="typeWE" route="right" depart="372" />
    <vehicle id="left_253" type="typeWE" route="left_up" depart="372" />
    <vehicle id="right_254" type="typeWE" route="right" depart="374" />
    <vehicle id="right_255" type="typeWE" route="right" depart="375" />
    <vehicle id="up_256" type="typeWE" route="down" depart="377" color="1,0,0"/>
    <vehicle id="right_257" type="typeWE" route="right_up" depart="378" />
    <vehicle id="right_258" type="typeWE" route="right" depart="379" />
    <vehicle id="left_259" type="typeWE" route="left_up" depart="379" />
    <vehicle id="down_260" type="typeWE" route="up" depart="379" color="1,0,0"/>
    <vehicle id="right_261" type="typeWE" route="right" depart="381" />
    <vehicle id="up_262" type="typeWE" route="down" depart="382" color="1,0,0"/>
    <vehicle id="down_263" type="typeWE" route="up" depart="382" color="1,0,0"/>
    <vehicle id="right_264" type="typeWE" route="left_down" depart="383" />
    <vehicle id="down_265" type="typeWE" route="up_left" depart="388" color="1,0,0"/>
    <vehicle id="right_266" type="typeWE" route="left" depart="390" />
    <vehicle id="right_267" type="typeWE" route="right" depart="391" />
    <vehicle id="down_268" type="typeWE" route="up_left" depart="391" color="1,0,0"/>
    <vehicle id="right_269" type="typeWE" route="right_down" depart="392" />
    <vehicle id="down_270" type="typeWE" route="up" depart="392" color="1,0,0"/>
    <vehicle id="left_271" type="typeWE" route="left_up" depart="393" />
    <vehicle id="down_272" type="typeWE" route="up" depart="393" color="1,0,0"/>
    <vehicle id="right_273" type="typeWE" route="right_up" depart="396" />
    <vehicle id="up_274" type="typeWE" route="down" depart="396" color="1,0,0"/>
    <vehicle id="right_275" type="typeWE" route="right" depart="403" />
    <vehicle id="up_276" type="typeWE" route="down" depart="403" color="1,0,0"/>
    <vehicle id="right_277" type="typeWE" route="right" depart="405" />
    <vehicle id="up_278" type="typeWE" route="down" depart="406" color="1,0,0"/>
    <vehicle id="right_279" type="typeWE" route="right" depart="407" />
    <vehicle id="right_280" type="typeWE" route="left_down" depart="407" />
    <vehicle id="down_281" type="typeWE" route="up" depart="409" color="1,0,0"/>
    <vehicle id="right_282" type="typeWE" route="right" depart="413" />
    <vehicle id="right_283" type="typeWE" route="right" depart="416" />
    <vehicle id="right_284" type="typeWE" route="right_down" depart="417" />
    <vehicle id="right_285" type="typeWE" route="left" depart="419" />
    <vehicle id="down_286" type="typeWE" route="up" depart="420" color="1,0,0"/>
    <vehicle id="right_287" type="typeWE" route="right" depart="421" />
    <vehicle id="up_288" type="typeWE" route="down" depart="421" color="1,0,0"/>
    <vehicle id="up_289" type="typeWE" route="down_right" depart="422" color="1,0,0"/>
    <vehicle id="right_290" type="typeWE" route="right" depart="423" />
    <vehicle id="right_291" type="typeWE" route="left" depart="426" />
    <vehicle id="up_292" type="typeWE" route="down_right" depart="426" color="1,0,0"/>
    <vehicle id="right_293" type="typeWE" route="left_down" depart="428" />
    <vehicle id="up_294" type="typeWE" route="down_right" depart="429" color="1,0,0"/>
    <vehicle id="up_295" type="typeWE" route="down" depart="430" color="1,0,0"/>
    <vehicle id="left_296" type="typeWE" route="left_up" depart="432" />
    <vehicle id="right_297" type="typeWE" route="right" depart="434" />
    <vehicle id="down_298" type="typeWE" route="up" depart="434" color="1,0,0"/>
    <vehicle id="up_299" type="typeWE" route="down_right" depart="436" color="1,0,0"/>
    <vehicle id="up_300" type="typeWE" route="down" depart="438" color="1,0,0"/>
    <vehicle id="left_301" type="typeWE" route="left_up" depart="439" />
    <vehicle id="up_302" type="typeWE" route="down_right" depart="440" color="1,0,0"/>
    <vehicle id="down_303" type="typeWE" route="up" depart="442" color="1,0,0"/>
    <vehicle id="right_304" type="typeWE" route="right" depart="443" />
    <vehicle id="right_305" type="typeWE" route="right" depart="444" />
    <vehicle id="right_306" type="typeWE" route="left" depart="445" />
    <vehicle id="up_307" type="typeWE" route="down" depart="445" color="1,0,0"/>
    <vehicle id="right_308" type="typeWE" route="left_down" depart="446" />
    <vehicle id="right_309" type="typeWE" route="right_down" depart="447" />
    <vehicle id="up_310" type="typeWE" route="down" depart="453" color="1,0,0"/>
    <vehicle id="up_311" type="typeWE" route="down" depart="458" color="1,0,0"/>
    <vehicle id="up_312" type="typeWE" route="down" depart="461" color="1,0,0"/>
    <vehicle id="up_313" type="typeWE" route="down" depart="462" color="1,0,0"/>
    <vehicle id="right_314" type="typeWE" route="right" depart="464" />
    <vehicle id="up_315" type="typeWE" route="down_right" depart="466" color="1,0,0"/>
    <vehicle id="right_316" type="typeWE" route="left_down" depart="467" />
    <vehicle id="right_317" type="typeWE" route="right" depart="468" />
    <vehicle id="up_318" type="typeWE" route="down" depart="469" color="1,0,0"/>
    <vehicle id="right_319" type="typeWE" route="left_down" depart="470" />
    <vehicle id="right_320" type="typeWE" route="right" depart="472" />
    <vehicle id="right_321" type="typeWE" route="left_down" depart="472" />
    <vehicle id="right_322" type="typeWE" route="left" depart="473" />
    <vehicle id="up_323" type="typeWE" route="down_right" depart="473" color="1,0,0"/>
    <vehicle id="right_324" type="typeWE" route="right" depart="474" />
    <vehicle id="down_325" type="typeWE" route="up_left" depart="477" color="1,0,0"/>
    <vehicle id="right_326" type="typeWE" route="right_up" depart="478" />
    <vehicle id="right_327" type="typeWE" route="right_up" depart="479" />
    <vehicle id="up_328" type="typeWE" route="down" depart="481" color="1,0,0"/>
    <vehicle id="down_329" type="typeWE" route="up_left" depart="481" color="1,0,0"/>
    <vehicle id="right_330" type="typeWE" route="right_down" depart="484" />
    <vehicle id="right_331" type="typeWE" route="left" depart="485" />
    <vehicle id="right_332" type="typeWE" route="right_down" depart="486" />
    <vehicle id="right_333" type="typeWE" route="left" depart="487" />
    <vehicle id="down_334" type="typeWE" route="up" depart="487" color="1,0,0"/>
    <vehicle id="right_335" type="typeWE" route="left" depart="490" />
    <vehicle id="left_336" type="typeWE" route="left_up" depart="491" />
    <vehicle id="right_337" type="typeWE" route="right" depart="492" />
    <vehicle id="right_338" type="typeWE" route="left" depart="494" />
    <vehicle id="right_339" type="typeWE" route="left_down" depart="495" />
    <vehicle id="right_340" type="typeWE" route="left" depart="498" />
    <vehicle id="up_341" type="typeWE" route="down" depart="499" color="1,0,0"/>
    <vehicle id="right_342" type="typeWE" route="right_up" depart="501" />
    <vehicle id="down_343" type="typeWE" route="up_left" depart="503" color="1,0,0"/>
    <vehicle id="up_344" type="typeWE" route="down" depart="504" color="1,0,0"/>
    <vehicle id="right_345" type="typeWE" route="right_up" depart="505" />
    <vehicle id="right_346" type="typeWE" route="right" depart="506" />
    <vehicle id="right_347" type="typeWE" route="left" depart="507" />
    <vehicle id="up_348" type="typeWE" route="down" depart="508" color="1,0,0"/>
    <vehicle id="right_349" type="typeWE" route="right_up" depart="509" />
    <vehicle id="left_350" type="typeWE" route="left_up" depart="510" />
    <vehicle id="right_351" type="typeWE" route="right" depart="511" />
    <vehicle id="right_352" type="typeWE" route="left" depart="511" />
    <vehicle id="right_353" type="typeWE" route="right_up" depart="512" />
    <vehicle id="right_354" type="typeWE" route="left" depart="513" />
    <vehicle id="down_355" type="typeWE" route="up_left" depart="513" color="1,0,0"/>
    <vehicle id="right_356" type="typeWE" route="left_down" depart="515" />
    <vehicle id="up_357" type="typeWE" route="down" depart="518" color="1,0,0"/>
    <vehicle id="right_358" type="typeWE" route="left" depart="519" />
    <vehicle id="up_359" type="typeWE" route="down_right" depart="522" color="1,0,0"/>
    <vehicle id="right_360" type="typeWE" route="right_down" depart="523" />
    <vehicle id="down_361" type="typeWE" route="up" depart="524" color="1,0,0"/>
    <vehicle id="right_362" type="typeWE" route="right" depart="526" />
    <vehicle id="right_363" type="typeWE" route="left" depart="527" />
    <vehicle id="down_364" type="typeWE" route="up_left" depart="527" color="1,0,0"/>
    <vehicle id="up_365" type="typeWE" route="down" depart="529" color="1,0,0"/>
    <vehicle id="right_366" type="typeWE" route="right" depart="530" />
    <vehicle id="right_367" type="typeWE" route="right" depart="531" />
    <vehicle id="down_368" type="typeWE" route="up" depart="531" color="1,0,0"/>
    <vehicle id="right_369" type="typeWE" route="left" depart="532" />
    <vehicle id="up_370" type="typeWE" route="down" depart="532" color="1,0,0"/>
    <vehicle id="right_371" type="typeWE" route="right" depart="534" />
    <vehicle id="right_372" type="typeWE" route="left_down" depart="534" />
    <vehicle id="right_373" type="typeWE" route="left" depart="538" />
    <vehicle id="down_374" type="typeWE" route="up" depart="539" color="1,0,0"/>
    <vehicle id="right_375" type="typeWE" route="right_down" depart="541" />
    <vehicle id="right_376" type="typeWE" route="right" depart="543" />