<?xml version="1.0" encoding="utf-8"?>
<additional>

  <laneAreaDetector id="left_22" lane="366845096#20_0" pos="1" length="60" freq="10" file="e2left.out" friendlyPos="false"/>
  <laneAreaDetector id="left_220" lane="366845096#22_0" pos="0" length="60" freq="10" file="e2left.out" friendlyPos="false"/>
  <laneAreaDetector id="left_221" lane="366845096#22_1" pos="1" length="60" freq="10" file="e2left.out" friendlyPos="false"/>

  <laneAreaDetector id="right_30" lane="-366845096#30_0" pos="33" length="60" freq="10" file="e2right.out" friendlyPos="false"/>
  <laneAreaDetector id="right_320" lane="-366845096#32_0" pos="0" length="71" freq="10" file="e2right.out" friendlyPos="false"/>
  <laneAreaDetector id="right_321" lane="-366845096#32_1" pos="1" length="71" freq="10" file="e2right.out" friendlyPos="false"/>

  <laneAreaDetector id="up_10" lane="157076458#1_0" pos="1" length="106" freq="10" file="e2up.out" friendlyPos="false"/>
  <laneAreaDetector id="down_20" lane="26446721#2_0" pos="1" length="95" freq="10" file="e2up.out" friendlyPos="false"/>
  
</additional> 

<!-- <e1Detector id="0" lane="4i_0" pos="450" freq="30" file="cross1.out" friendlyPos="x"/> -->
<!-- <e2Detector id="1" lane="5i_0" pos="450" freq="30" file="cross2.out" friendlyPos="x"/> -->

