<?xml version="1.0" encoding="UTF-8"?>

<!-- generated on Thu Oct  6 13:45:13 2016 by SUMO netconvert Version 0.25.0
<?xml version="1.0" encoding="UTF-8"?>

<configuration xmlns:xsi="http://www.w3.org/2001/XMLSchema-instance" xsi:noNamespaceSchemaLocation="http://sumo.dlr.de/xsd/netconvertConfiguration.xsd">

    <input>
        <type-files value="/home/muniz/sumo/sumo//data/typemap/osmNetconvert.typ.xml"/>
        <osm-files value="map2.osm"/>
    </input>

    <output>
        <output-file value="nylandsvej2.net.xml"/>
    </output>

    <projection>
        <proj.utm value="true"/>
    </projection>

</configuration>
-->

<net version="0.25" xmlns:xsi="http://www.w3.org/2001/XMLSchema-instance" xsi:noNamespaceSchemaLocation="http://sumo.dlr.de/xsd/net_file.xsd">

    <location netOffset="-322123.60,-6153203.22" convBoundary="0.00,0.00,741.40,1546.86" origBoundary="12.183566,55.492518,12.195052,55.506668" projParameter="+proj=utm +zone=33 +ellps=WGS84 +datum=WGS84 +units=m +no_defs"/>

    <type id="highway.bridleway" priority="1" numLanes="1" speed="2.78" allow="pedestrian" oneway="1" width="2.00"/>
    <type id="highway.bus_guideway" priority="1" numLanes="1" speed="8.33" allow="bus" oneway="1"/>
    <type id="highway.cycleway" priority="1" numLanes="1" speed="5.56" allow="bicycle" oneway="0" width="1.00"/>
    <type id="highway.footway" priority="1" numLanes="1" speed="2.78" allow="pedestrian" oneway="1" width="2.00"/>
    <type id="highway.ford" priority="1" numLanes="1" speed="2.78" allow="army" oneway="0"/>
    <type id="highway.living_street" priority="3" numLanes="1" speed="2.78" disallow="tram rail_urban rail rail_electric ship" oneway="0"/>
    <type id="highway.motorway" priority="13" numLanes="2" speed="44.44" allow="private emergency authority army vip passenger hov taxi bus coach delivery truck trailer motorcycle evehicle custom1 custom2" oneway="1"/>
    <type id="highway.motorway_link" priority="12" numLanes="1" speed="22.22" allow="private emergency authority army vip passenger hov taxi bus coach delivery truck trailer motorcycle evehicle custom1 custom2" oneway="1"/>
    <type id="highway.path" priority="1" numLanes="1" speed="2.78" allow="bicycle pedestrian" oneway="1" width="2.00"/>
    <type id="highway.pedestrian" priority="1" numLanes="1" speed="2.78" allow="pedestrian" oneway="1" width="2.00"/>
    <type id="highway.primary" priority="9" numLanes="2" speed="27.78" disallow="tram rail_urban rail rail_electric ship" oneway="0"/>
    <type id="highway.primary_link" priority="8" numLanes="1" speed="22.22" disallow="tram rail_urban rail rail_electric ship" oneway="0"/>
    <type id="highway.raceway" priority="14" numLanes="2" speed="83.33" allow="vip" oneway="0"/>
    <type id="highway.residential" priority="4" numLanes="1" speed="13.89" disallow="tram rail_urban rail rail_electric ship" oneway="0"/>
    <type id="highway.secondary" priority="7" numLanes="2" speed="27.78" disallow="tram rail_urban rail rail_electric ship" oneway="0"/>
    <type id="highway.secondary_link" priority="6" numLanes="1" speed="22.22" disallow="tram rail_urban rail rail_electric ship" oneway="0"/>
    <type id="highway.service" priority="2" numLanes="1" speed="5.56" allow="delivery bicycle pedestrian" oneway="0"/>
    <type id="highway.services" priority="1" numLanes="1" speed="8.33" disallow="tram rail_urban rail rail_electric ship" oneway="0"/>
    <type id="highway.stairs" priority="1" numLanes="1" speed="1.39" allow="pedestrian" oneway="1" width="2.00"/>
    <type id="highway.step" priority="1" numLanes="1" speed="1.39" allow="pedestrian" oneway="1" width="2.00"/>
    <type id="highway.steps" priority="1" numLanes="1" speed="1.39" allow="pedestrian" oneway="1" width="2.00"/>
    <type id="highway.tertiary" priority="6" numLanes="1" speed="22.22" disallow="tram rail_urban rail rail_electric ship" oneway="0"/>
    <type id="highway.tertiary_link" priority="5" numLanes="1" speed="22.22" disallow="tram rail_urban rail rail_electric ship" oneway="0"/>
    <type id="highway.track" priority="1" numLanes="1" speed="5.56" disallow="tram rail_urban rail rail_electric ship" oneway="0"/>
    <type id="highway.trunk" priority="11" numLanes="2" speed="27.78" disallow="tram rail_urban rail rail_electric bicycle pedestrian ship" oneway="0"/>
    <type id="highway.trunk_link" priority="10" numLanes="1" speed="22.22" disallow="tram rail_urban rail rail_electric bicycle pedestrian ship" oneway="0"/>
    <type id="highway.unclassified" priority="5" numLanes="1" speed="13.89" disallow="tram rail_urban rail rail_electric ship" oneway="0"/>
    <type id="highway.unsurfaced" priority="1" numLanes="1" speed="8.33" disallow="tram rail_urban rail rail_electric ship" oneway="0"/>
    <type id="railway.light_rail" priority="15" numLanes="1" speed="27.78" allow="rail_urban" oneway="1"/>
    <type id="railway.preserved" priority="15" numLanes="1" speed="27.78" allow="rail" oneway="1"/>
    <type id="railway.rail" priority="15" numLanes="1" speed="83.33" allow="rail rail_electric" oneway="1"/>
    <type id="railway.subway" priority="15" numLanes="1" speed="27.78" allow="rail_urban" oneway="1"/>
    <type id="railway.tram" priority="15" numLanes="1" speed="13.89" allow="tram" oneway="1"/>

    <edge id=":1693132977_0" function="internal">
        <lane id=":1693132977_0_0" index="0" disallow="tram rail_urban rail rail_electric ship" speed="13.89" length="5.20" shape="359.66,888.30 358.69,887.21 357.64,886.76 356.52,886.94 355.31,887.77"/>
    </edge>
    <edge id=":1693132977_1" function="internal">
        <lane id=":1693132977_1_0" index="0" disallow="tram rail_urban rail rail_electric ship" speed="13.89" length="10.73" shape="359.66,888.30 357.96,885.73 356.68,883.84 355.36,881.98 353.55,879.48"/>
    </edge>
    <edge id=":1693132977_2" function="internal">
        <lane id=":1693132977_2_0" index="0" disallow="tram rail_urban rail rail_electric ship" speed="13.89" length="11.49" shape="359.66,888.30 358.36,885.58 358.08,882.92 358.82,880.32 360.59,877.79"/>
    </edge>
    <edge id=":1693132977_3" function="internal">
        <lane id=":1693132977_3_0" index="0" disallow="tram rail_urban rail rail_electric ship" speed="13.89" length="4.82" shape="359.66,888.30 359.67,886.82 360.13,886.02 361.05,885.91 362.42,886.49"/>
    </edge>
    <edge id=":1693132977_4" function="internal">
        <lane id=":1693132977_4_0" index="0" disallow="tram rail_urban rail rail_electric ship" speed="13.89" length="7.08" shape="363.03,880.01 361.93,881.58 361.46,883.18 361.62,884.82 362.42,886.49"/>
    </edge>
    <edge id=":1693132977_5" function="internal">
        <lane id=":1693132977_5_0" index="0" disallow="tram rail_urban rail rail_electric ship" speed="13.89" length="10.95" shape="363.03,880.01 360.92,882.30 359.29,884.01 357.60,885.65 355.31,887.77"/>
    </edge>
    <edge id=":1693132977_6" function="internal">
        <lane id=":1693132977_6_0" index="0" disallow="tram rail_urban rail rail_electric ship" speed="13.89" length="5.57" shape="363.03,880.01 360.54,882.06 358.27,882.62"/>
    </edge>
    <edge id=":1693132977_7" function="internal">
        <lane id=":1693132977_7_0" index="0" disallow="tram rail_urban rail rail_electric ship" speed="13.89" length="2.41" shape="363.03,880.01 361.59,880.37 360.70,880.12"/>
    </edge>
    <edge id=":1693132977_16" function="internal">
        <lane id=":1693132977_16_0" index="0" speed="13.89" length="5.85" shape="358.27,882.62 358.13,882.65 355.80,881.79 353.55,879.48"/>
    </edge>
    <edge id=":1693132977_17" function="internal">
        <lane id=":1693132977_17_0" index="0" speed="13.89" length="2.41" shape="360.70,880.12 360.37,879.26 360.59,877.79"/>
    </edge>
    <edge id=":1693132977_8" function="internal">
        <lane id=":1693132977_8_0" index="0" disallow="tram rail_urban rail rail_electric ship" speed="13.89" length="5.26" shape="356.22,877.54 357.26,878.61 358.33,879.01 359.44,878.73 360.59,877.79"/>
    </edge>
    <edge id=":1693132977_9" function="internal">
        <lane id=":1693132977_9_0" index="0" disallow="tram rail_urban rail rail_electric ship" speed="13.89" length="10.88" shape="356.22,877.54 358.04,880.06 359.39,881.97 360.70,883.90 362.42,886.49"/>
    </edge>
    <edge id=":1693132977_10" function="internal">
        <lane id=":1693132977_10_0" index="0" disallow="tram rail_urban rail rail_electric ship" speed="13.89" length="11.43" shape="356.22,877.54 357.70,880.29 358.04,882.92 357.24,885.41 355.31,887.77"/>
    </edge>
    <edge id=":1693132977_11" function="internal">
        <lane id=":1693132977_11_0" index="0" disallow="tram rail_urban rail rail_electric ship" speed="13.89" length="4.82" shape="356.22,877.54 356.28,879.03 355.86,879.85 354.95,880.00 353.55,879.48"/>
    </edge>
    <edge id=":1693132977_12" function="internal">
        <lane id=":1693132977_12_0" index="0" disallow="tram rail_urban rail rail_electric ship" speed="13.89" length="6.54" shape="353.08,885.34 354.17,884.00 354.62,882.57 354.41,881.07 353.55,879.48"/>
    </edge>
    <edge id=":1693132977_13" function="internal">
        <lane id=":1693132977_13_0" index="0" disallow="tram rail_urban rail rail_electric ship" speed="13.89" length="10.66" shape="353.08,885.34 355.33,883.25 356.95,881.68 358.52,880.05 360.59,877.79"/>
    </edge>
    <edge id=":1693132977_14" function="internal">
        <lane id=":1693132977_14_0" index="0" disallow="tram rail_urban rail rail_electric ship" speed="13.89" length="5.30" shape="353.08,885.34 355.67,883.57 357.81,883.22"/>
    </edge>
    <edge id=":1693132977_15" function="internal">
        <lane id=":1693132977_15_0" index="0" disallow="tram rail_urban rail rail_electric ship" speed="13.89" length="2.41" shape="353.08,885.34 354.55,885.11 355.41,885.44"/>
    </edge>
    <edge id=":1693132977_18" function="internal">
        <lane id=":1693132977_18_0" index="0" speed="13.89" length="5.87" shape="357.81,883.22 358.09,883.17 360.34,884.14 362.42,886.49"/>
    </edge>
    <edge id=":1693132977_19" function="internal">
        <lane id=":1693132977_19_0" index="0" speed="13.89" length="2.41" shape="355.41,885.44 355.67,886.32 355.31,887.77"/>
    </edge>
    <edge id=":1693132995_0" function="internal">
        <lane id=":1693132995_0_0" index="0" disallow="tram rail_urban rail rail_electric ship" speed="13.89" length="4.82" shape="742.85,1546.07 742.72,1547.55 742.20,1548.31 741.28,1548.34 739.96,1547.65"/>
    </edge>
    <edge id=":2126263276_0" function="internal">
        <lane id=":2126263276_0_0" index="0" allow="delivery bicycle pedestrian" speed="5.56" length="4.93" shape="272.19,854.25 272.04,849.32"/>
    </edge>
    <edge id=":2126263276_1" function="internal">
        <lane id=":2126263276_1_0" index="0" allow="delivery bicycle pedestrian" speed="5.56" length="2.41" shape="272.19,854.25 272.95,852.97 273.75,852.52"/>
    </edge>
    <edge id=":2126263276_6" function="internal">
        <lane id=":2126263276_6_0" index="0" speed="5.56" length="2.41" shape="273.75,852.52 274.60,852.89 275.49,854.08"/>
    </edge>
    <edge id=":2126263276_2" function="internal">
        <lane id=":2126263276_2_0" index="0" allow="delivery bicycle pedestrian" speed="5.56" length="3.11" shape="275.36,850.97 275.49,854.08"/>
    </edge>
    <edge id=":2126263276_3" function="internal">
        <lane id=":2126263276_3_0" index="0" allow="delivery bicycle pedestrian" speed="5.56" length="1.86" shape="275.36,850.97 273.91,851.80 273.72,851.80"/>
    </edge>
    <edge id=":2126263276_7" function="internal">
        <lane id=":2126263276_7_0" index="0" speed="5.56" length="3.54" shape="273.72,851.80 272.88,851.80 272.25,850.98 272.04,849.32"/>
    </edge>
    <edge id=":2126263276_4" function="internal">
        <lane id=":2126263276_4_0" index="0" allow="delivery bicycle pedestrian" speed="4.17" length="4.53" shape="268.96,851.91 270.32,851.69 271.28,851.18 271.86,850.39 272.04,849.32"/>
    </edge>
    <edge id=":2126263276_5" function="internal">
        <lane id=":2126263276_5_0" index="0" allow="delivery bicycle pedestrian" speed="4.17" length="7.46" shape="268.96,851.91 271.77,851.92 273.79,852.29 275.03,853.01 275.49,854.08"/>
    </edge>
    <edge id=":2126263282_0" function="internal">
        <lane id=":2126263282_0_0" index="0" allow="delivery bicycle pedestrian" speed="5.56" length="10.30" shape="280.29,887.68 277.48,887.41 275.43,886.31 274.13,884.38 273.59,881.61"/>
    </edge>
    <edge id=":2126263282_1" function="internal">
        <lane id=":2126263282_1_0" index="0" allow="delivery bicycle pedestrian" speed="5.56" length="2.69" shape="280.29,887.68 279.01,886.91 278.56,886.11 278.68,885.85"/>
    </edge>
    <edge id=":2126263282_6" function="internal">
        <lane id=":2126263282_6_0" index="0" speed="5.56" length="2.13" shape="278.68,885.85 278.94,885.26 280.13,884.38"/>
    </edge>
    <edge id=":2126263282_2" function="internal">
        <lane id=":2126263282_2_0" index="0" allow="delivery bicycle pedestrian" speed="5.56" length="5.00" shape="276.88,881.44 277.15,882.78 277.77,883.72 278.77,884.25 280.13,884.38"/>
    </edge>
    <edge id=":2126263282_3" function="internal">
        <lane id=":2126263282_3_0" index="0" allow="delivery bicycle pedestrian" speed="5.56" length="2.20" shape="276.88,881.44 276.12,882.72 275.50,883.07"/>
    </edge>
    <edge id=":2126263282_7" function="internal">
        <lane id=":2126263282_7_0" index="0" speed="5.56" length="2.62" shape="275.50,883.07 275.32,883.17 274.47,882.80 273.59,881.61"/>
    </edge>
    <edge id=":2126263282_4" function="internal">
        <lane id=":2126263282_4_0" index="0" allow="delivery bicycle pedestrian" speed="4.17" length="13.51" shape="272.93,894.94 273.47,894.05 273.76,891.53 273.80,887.38 273.59,881.61"/>
    </edge>
    <edge id=":2126263282_5" function="internal">
        <lane id=":2126263282_5_0" index="0" allow="delivery bicycle pedestrian" speed="4.17" length="13.52" shape="272.93,894.94 275.45,893.07 276.52,889.53 277.60,886.05 280.13,884.38"/>
    </edge>
    <edge id=":24965381_0" function="internal">
        <lane id=":24965381_0_0" index="0" disallow="tram rail_urban rail rail_electric ship" speed="13.89" length="4.82" shape="0.96,1175.82 -0.53,1175.87 -1.34,1175.44 -1.49,1174.52 -0.96,1173.13"/>
    </edge>
    <edge id=":24965384_0" function="internal">
        <lane id=":24965384_0_0" index="0" disallow="tram rail_urban rail rail_electric ship" speed="13.89" length="0.10" shape="32.63,80.57 32.62,80.55"/>
    </edge>
    <edge id=":24965384_1" function="internal">
        <lane id=":24965384_1_0" index="0" disallow="tram rail_urban rail rail_electric ship" speed="13.89" length="2.41" shape="32.63,80.57 32.96,79.12 33.58,78.44"/>
    </edge>
    <edge id=":24965384_4" function="internal">
        <lane id=":24965384_4_0" index="0" speed="13.89" length="2.41" shape="33.58,78.44 34.50,78.53 35.71,79.39"/>
    </edge>
    <edge id=":24965384_2" function="internal">
        <lane id=":24965384_2_0" index="0" disallow="tram rail_urban rail rail_electric ship" speed="13.89" length="0.10" shape="35.73,79.43 35.71,79.39"/>
    </edge>
    <edge id=":24965384_3" function="internal">
        <lane id=":24965384_3_0" index="0" disallow="tram rail_urban rail rail_electric ship" speed="13.89" length="2.41" shape="35.73,79.43 35.37,80.88 34.73,81.54"/>
    </edge>
    <edge id=":24965384_5" function="internal">
        <lane id=":24965384_5_0" index="0" speed="13.89" length="2.41" shape="34.73,81.54 33.82,81.44 32.62,80.55"/>
    </edge>
    <edge id=":288204511_0" function="internal">
        <lane id=":288204511_0_0" index="0" disallow="tram rail_urban rail rail_electric ship" speed="13.89" length="4.82" shape="3.77,0.56 4.13,-0.88 4.77,-1.55 5.68,-1.44 6.88,-0.56"/>
    </edge>
    <edge id=":288206446_0" function="internal">
        <lane id=":288206446_0_0" index="0" disallow="tram rail_urban rail rail_electric ship" speed="13.89" length="4.82" shape="495.69,795.35 497.16,795.56 497.89,796.13 497.88,797.05 497.11,798.33"/>
    </edge>
    <edge id=":291781577_0" function="internal">
        <lane id=":291781577_0_0" index="0" disallow="tram rail_urban rail rail_electric ship" speed="13.89" length="4.82" shape="184.40,532.31 184.74,530.86 185.36,530.18 186.28,530.27 187.49,531.14"/>
    </edge>
    <edge id=":291781693_0" function="internal">
        <lane id=":291781693_0_0" index="0" allow="delivery bicycle pedestrian" speed="5.56" length="5.00" shape="290.73,853.01 290.47,851.66 289.84,850.72 288.85,850.19 287.49,850.06"/>
    </edge>
    <edge id=":291781693_1" function="internal">
        <lane id=":291781693_1_0" index="0" disallow="tram rail_urban rail rail_electric ship" speed="9.72" length="9.44" shape="290.73,853.01 290.46,843.57"/>
    </edge>
    <edge id=":291781693_2" function="internal">
        <lane id=":291781693_2_0" index="0" allow="delivery bicycle pedestrian" speed="5.56" length="4.82" shape="290.73,853.01 291.49,851.73 292.30,851.28 293.14,851.66 294.03,852.85"/>
    </edge>
    <edge id=":291781693_3" function="internal">
        <lane id=":291781693_3_0" index="0" allow="delivery bicycle pedestrian" speed="9.72" length="9.32" shape="293.75,843.54 294.03,852.85"/>
    </edge>
    <edge id=":291781693_4" function="internal">
        <lane id=":291781693_4_0" index="0" allow="delivery bicycle pedestrian" speed="9.72" length="10.23" shape="293.75,843.54 293.39,846.28 292.22,848.28 290.25,849.54 287.49,850.06"/>
    </edge>
    <edge id=":291781693_5" function="internal">
        <lane id=":291781693_5_0" index="0" disallow="tram rail_urban rail rail_electric ship" speed="13.89" length="4.82" shape="293.75,843.54 292.94,844.79 292.12,845.21 291.29,844.80 290.46,843.57"/>
    </edge>
    <edge id=":291781693_6" function="internal">
        <lane id=":291781693_6_0" index="0" disallow="tram rail_urban rail rail_electric ship" speed="9.72" length="5.05" shape="287.33,846.76 288.71,846.51 289.69,845.89 290.27,844.91 290.46,843.57"/>
    </edge>
    <edge id=":291781693_7" function="internal">
        <lane id=":291781693_7_0" index="0" allow="delivery bicycle pedestrian" speed="5.56" length="10.32" shape="287.33,846.76 290.14,847.03 292.20,848.13 293.49,850.07 294.03,852.85"/>
    </edge>
    <edge id=":291781693_8" function="internal">
        <lane id=":291781693_8_0" index="0" allow="delivery bicycle pedestrian" speed="5.56" length="4.82" shape="287.33,846.76 288.60,847.53 289.05,848.33 288.68,849.18 287.49,850.06"/>
    </edge>
    <edge id=":295794844_0" function="internal">
        <lane id=":295794844_0_0" index="0" disallow="tram rail_urban rail rail_electric ship" speed="9.72" length="7.14" shape="368.38,819.27 366.97,817.75 365.47,816.86 363.89,816.61 362.22,817.00"/>
    </edge>
    <edge id=":295794844_1" function="internal">
        <lane id=":295794844_1_0" index="0" allow="bicycle pedestrian" speed="4.17" length="8.54" width="2.00" shape="368.38,819.27 367.85,817.80 368.43,816.34 370.12,814.87 372.92,813.40"/>
    </edge>
    <edge id=":295794844_2" function="internal">
        <lane id=":295794844_2_0" index="0" allow="delivery bicycle pedestrian" speed="5.56" length="4.82" shape="368.38,819.27 368.31,817.78 368.72,816.96 369.63,816.80 371.03,817.30"/>
    </edge>
    <edge id=":295794844_3" function="internal">
        <lane id=":295794844_3_0" index="0" allow="bicycle pedestrian" speed="8.33" length="12.14" width="2.00" shape="360.96,813.95 364.13,813.34 366.96,813.71 369.77,814.06 372.92,813.40"/>
    </edge>
    <edge id=":295794844_4" function="internal">
        <lane id=":295794844_4_0" index="0" allow="delivery bicycle pedestrian" speed="9.72" length="11.55" shape="360.96,813.95 363.76,813.26 366.38,813.59 368.80,814.94 371.03,817.30"/>
    </edge>
    <edge id=":295794844_5" function="internal">
        <lane id=":295794844_5_0" index="0" disallow="tram rail_urban rail rail_electric ship" speed="13.89" length="4.82" shape="360.96,813.95 362.42,814.24 363.11,814.84 363.05,815.76 362.22,817.00"/>
    </edge>
    <edge id=":295794845_0" function="internal">
        <lane id=":295794845_0_0" index="0" disallow="tram rail_urban rail rail_electric ship" speed="13.89" length="9.50" shape="354.11,820.34 345.33,823.96"/>
    </edge>
    <edge id=":295794845_1" function="internal">
        <lane id=":295794845_1_0" index="0" disallow="tram rail_urban rail rail_electric ship" speed="13.89" length="5.28" shape="354.11,820.34 351.37,821.04 349.07,820.69 348.97,820.62"/>
    </edge>
    <edge id=":295794845_2" function="internal">
        <lane id=":295794845_2_0" index="0" disallow="tram rail_urban rail rail_electric ship" speed="13.89" length="2.41" shape="354.11,820.34 352.65,820.05 351.96,819.44"/>
    </edge>
    <edge id=":295794845_9" function="internal">
        <lane id=":295794845_9_0" index="0" speed="13.89" length="5.05" shape="348.97,820.62 347.19,819.30 345.75,816.86"/>
    </edge>
    <edge id=":295794845_10" function="internal">
        <lane id=":295794845_10_0" index="0" speed="13.89" length="2.41" shape="351.96,819.44 352.02,818.52 352.85,817.29"/>
    </edge>
    <edge id=":295794845_3" function="internal">
        <lane id=":295794845_3_0" index="0" disallow="tram rail_urban rail rail_electric ship" speed="13.89" length="5.01" shape="348.80,815.60 349.50,816.78 350.41,817.46 351.53,817.63 352.85,817.29"/>
    </edge>
    <edge id=":295794845_4" function="internal">
        <lane id=":295794845_4_0" index="0" disallow="tram rail_urban rail rail_electric ship" speed="13.89" length="10.33" shape="348.80,815.60 349.50,818.34 349.16,820.65 347.77,822.52 345.33,823.96"/>
    </edge>
    <edge id=":295794845_5" function="internal">
        <lane id=":295794845_5_0" index="0" disallow="tram rail_urban rail rail_electric ship" speed="13.89" length="4.82" shape="348.80,815.60 348.51,817.06 347.91,817.75 346.99,817.69 345.75,816.86"/>
    </edge>
    <edge id=":295794845_6" function="internal">
        <lane id=":295794845_6_0" index="0" disallow="tram rail_urban rail rail_electric ship" speed="13.89" length="5.00" shape="344.07,820.91 345.25,820.21 345.93,819.30 346.09,818.19 345.75,816.86"/>
    </edge>
    <edge id=":295794845_7" function="internal">
        <lane id=":295794845_7_0" index="0" disallow="tram rail_urban rail rail_electric ship" speed="13.89" length="9.50" shape="344.07,820.91 352.85,817.29"/>
    </edge>
    <edge id=":295794845_8" function="internal">
        <lane id=":295794845_8_0" index="0" disallow="tram rail_urban rail rail_electric ship" speed="13.89" length="2.41" shape="344.07,820.91 345.53,821.20 346.22,821.81"/>
    </edge>
    <edge id=":295794845_11" function="internal">
        <lane id=":295794845_11_0" index="0" speed="13.89" length="2.41" shape="346.22,821.81 346.16,822.73 345.33,823.96"/>
    </edge>
    <edge id=":295794873_0" function="internal">
        <lane id=":295794873_0_0" index="0" disallow="tram rail_urban rail rail_electric ship" speed="13.89" length="4.82" shape="328.22,774.49 328.51,773.03 329.11,772.34 330.03,772.40 331.27,773.23"/>
    </edge>
    <edge id=":295795079_0" function="internal">
        <lane id=":295795079_0_0" index="0" disallow="tram rail_urban rail rail_electric ship" speed="13.89" length="4.82" shape="445.67,781.66 447.14,781.92 447.85,782.51 447.80,783.43 446.99,784.69"/>
    </edge>
    <edge id=":295795081_0" function="internal">
        <lane id=":295795081_0_0" index="0" disallow="tram rail_urban rail rail_electric ship" speed="13.89" length="4.82" shape="402.05,741.17 402.31,739.71 402.90,739.00 403.82,739.05 405.07,739.85"/>
    </edge>
    <edge id=":295795103_0" function="internal">
        <lane id=":295795103_0_0" index="0" disallow="tram rail_urban rail rail_electric ship" speed="13.89" length="9.50" shape="431.11,791.62 422.40,795.41"/>
    </edge>
    <edge id=":295795103_1" function="internal">
        <lane id=":295795103_1_0" index="0" disallow="tram rail_urban rail rail_electric ship" speed="13.89" length="5.28" shape="431.11,791.62 428.38,792.37 426.07,792.07 425.98,792.00"/>
    </edge>
    <edge id=":295795103_2" function="internal">
        <lane id=":295795103_2_0" index="0" disallow="tram rail_urban rail rail_electric ship" speed="13.89" length="2.41" shape="431.11,791.62 429.64,791.36 428.94,790.76"/>
    </edge>
    <edge id=":295795103_9" function="internal">
        <lane id=":295795103_9_0" index="0" speed="13.89" length="5.05" shape="425.98,792.00 424.17,790.71 422.68,788.31"/>
    </edge>
    <edge id=":295795103_10" function="internal">
        <lane id=":295795103_10_0" index="0" speed="13.89" length="2.41" shape="428.94,790.76 428.98,789.84 429.79,788.59"/>
    </edge>
    <edge id=":295795103_3" function="internal">
        <lane id=":295795103_3_0" index="0" disallow="tram rail_urban rail rail_electric ship" speed="13.89" length="5.01" shape="425.70,786.98 426.43,788.15 427.35,788.81 428.47,788.96 429.79,788.59"/>
    </edge>
    <edge id=":295795103_4" function="internal">
        <lane id=":295795103_4_0" index="0" disallow="tram rail_urban rail rail_electric ship" speed="13.89" length="10.33" shape="425.70,786.98 426.46,789.71 426.16,792.03 424.81,793.93 422.40,795.41"/>
    </edge>
    <edge id=":295795103_5" function="internal">
        <lane id=":295795103_5_0" index="0" disallow="tram rail_urban rail rail_electric ship" speed="13.89" length="4.82" shape="425.70,786.98 425.44,788.45 424.85,789.16 423.93,789.11 422.68,788.31"/>
    </edge>
    <edge id=":295795103_6" function="internal">
        <lane id=":295795103_6_0" index="0" disallow="tram rail_urban rail rail_electric ship" speed="13.89" length="5.00" shape="421.08,792.39 422.25,791.67 422.90,790.75 423.05,789.63 422.68,788.31"/>
    </edge>
    <edge id=":295795103_7" function="internal">
        <lane id=":295795103_7_0" index="0" disallow="tram rail_urban rail rail_electric ship" speed="13.89" length="9.50" shape="421.08,792.39 429.79,788.59"/>
    </edge>
    <edge id=":295795103_8" function="internal">
        <lane id=":295795103_8_0" index="0" disallow="tram rail_urban rail rail_electric ship" speed="13.89" length="2.41" shape="421.08,792.39 422.54,792.65 423.25,793.24"/>
    </edge>
    <edge id=":295795103_11" function="internal">
        <lane id=":295795103_11_0" index="0" speed="13.89" length="2.41" shape="423.25,793.24 423.20,794.16 422.40,795.41"/>
    </edge>
    <edge id=":3637995080_0" function="internal">
        <lane id=":3637995080_0_0" index="0" allow="delivery bicycle pedestrian" speed="5.56" length="4.82" shape="381.45,831.34 381.53,832.83 381.11,833.65 380.21,833.81 378.81,833.31"/>
    </edge>
    <edge id=":3776908497_0" function="internal">
        <lane id=":3776908497_0_0" index="0" disallow="tram rail_urban rail rail_electric ship" speed="13.89" length="2.41" shape="372.94,816.95 371.47,816.69 370.76,816.10"/>
    </edge>
    <edge id=":3776908497_2" function="internal">
        <lane id=":3776908497_2_0" index="0" speed="13.89" length="2.41" shape="370.76,816.10 370.81,815.18 371.62,813.93"/>
    </edge>
    <edge id=":3776908497_1" function="internal">
        <lane id=":3776908497_1_0" index="0" disallow="tram rail_urban rail rail_electric ship" speed="8.33" length="46.64" shape="414.99,796.84 409.65,799.49 393.44,805.86 377.16,812.00 371.62,813.93"/>
    </edge>
    <edge id=":3776908508_0" function="internal">
        <lane id=":3776908508_0_0" index="0" disallow="tram rail_urban rail rail_electric ship" speed="13.89" length="4.82" shape="342.97,824.93 341.52,824.64 340.82,824.03 340.89,823.11 341.72,821.88"/>
    </edge>
    <edge id=":3776908522_0" function="internal">
        <lane id=":3776908522_0_0" index="0" disallow="tram rail_urban rail rail_electric ship" speed="13.89" length="5.29" shape="369.49,873.46 365.67,877.12"/>
    </edge>
    <edge id=":3776908522_1" function="internal">
        <lane id=":3776908522_1_0" index="0" disallow="tram rail_urban rail rail_electric ship" speed="13.89" length="2.41" shape="369.49,873.46 368.01,873.60 367.17,873.22"/>
    </edge>
    <edge id=":3776908522_4" function="internal">
        <lane id=":3776908522_4_0" index="0" speed="13.89" length="2.41" shape="367.17,873.22 366.97,872.32 367.41,870.90"/>
    </edge>
    <edge id=":3776908522_2" function="internal">
        <lane id=":3776908522_2_0" index="0" disallow="tram rail_urban rail rail_electric ship" speed="13.89" length="5.78" shape="363.23,874.90 367.41,870.90"/>
    </edge>
    <edge id=":3776908522_3" function="internal">
        <lane id=":3776908522_3_0" index="0" disallow="tram rail_urban rail rail_electric ship" speed="13.89" length="2.58" shape="363.23,874.90 364.67,874.54 365.56,874.79 365.62,874.95"/>
    </edge>
    <edge id=":3776908522_5" function="internal">
        <lane id=":3776908522_5_0" index="0" speed="13.89" length="2.24" shape="365.62,874.95 365.89,875.65 365.67,877.12"/>
    </edge>
    <edge id=":4434181753_0" function="internal">
        <lane id=":4434181753_0_0" index="0" allow="delivery bicycle pedestrian" speed="5.56" length="4.82" shape="297.78,932.41 296.30,932.59 295.45,932.23 295.23,931.34 295.63,929.91"/>
    </edge>
    <edge id=":4434181754_0" function="internal">
        <lane id=":4434181754_0_0" index="0" allow="delivery bicycle pedestrian" speed="5.56" length="4.82" shape="335.42,895.68 336.89,895.50 337.74,895.86 337.97,896.75 337.57,898.18"/>
    </edge>

    <edge id="-157076458" from="1693132977" to="1693132995" priority="4" type="highway.residential" shape="358.11,882.95 395.90,940.29 421.76,985.83 609.93,1320.80 646.06,1372.90 741.40,1546.86">
        <lane id="-157076458_0" index="0" disallow="tram rail_urban rail rail_electric ship" speed="13.89" length="761.83" shape="362.42,886.49 397.31,939.43 423.20,985.02 611.33,1319.93 647.47,1372.03 742.85,1546.07"/>
    </edge>
    <edge id="-26446721#0" from="24965384" to="288204511" priority="4" type="highway.residential">