<?xml version="1.0" encoding="UTF-8"?>

<!-- generated on Tue 17 Jan 2017 07:57:04 PM CET by Netedit Version 0.25.0
<?xml version="1.0" encoding="UTF-8"?>

<configuration xmlns:xsi="http://www.w3.org/2001/XMLSchema-instance" xsi:noNamespaceSchemaLocation="http://sumo.dlr.de/xsd/netedit.exeConfiguration.xsd">

    <input>
        <sumo-net-file value="data/nylandsvejGen.net.xml"/>
    </input>

    <output>
        <output-file value="data/nylandsvejGen.net.xml"/>
    </output>

    <processing>
        <no-turnarounds value="true"/>
        <offset.disable-normalization value="true"/>
        <lefthand value="false"/>
        <junctions.corner-detail value="0"/>
    </processing>

    <visualisation>
        <registry-viewport value="true"/>
    </visualisation>

</configuration>
-->

<net version="0.25" xmlns:xsi="http://www.w3.org/2001/XMLSchema-instance" xsi:noNamespaceSchemaLocation="http://sumo.dlr.de/xsd/net_file.xsd">

    <location netOffset="-322079.42,-6153203.22" convBoundary="0.00,0.00,985.05,1569.01" origBoundary="12.183246,55.492518,12.196734,55.506827" projParameter="+proj=utm +zone=33 +ellps=WGS84 +datum=WGS84 +units=m +no_defs"/>

    <edge id=":1693132977_0" function="internal">
        <lane id=":1693132977_0_0" index="0" speed="50.00" length="5.20" shape="403.84,888.30 402.87,887.20 401.82,886.75 400.69,886.93 399.49,887.76"/>
    </edge>
    <edge id=":1693132977_1" function="internal">
        <lane id=":1693132977_1_0" index="0" disallow="tram rail_urban rail rail_electric ship" speed="50.00" length="12.99" shape="403.84,888.30 401.93,885.44 400.19,882.92 398.41,880.43 396.40,877.64"/>
    </edge>
    <edge id=":1693132977_2" function="internal">
        <lane id=":1693132977_2_0" index="0" disallow="tram rail_urban rail rail_electric ship" speed="50.00" length="7.67" shape="403.84,888.30 401.79,884.48 401.04,881.22"/>
    </edge>
    <edge id=":1693132977_12" function="internal">
        <lane id=":1693132977_12_0" index="0" speed="50.00" length="5.60" shape="401.04,881.22 401.58,878.51 403.41,876.34"/>
    </edge>
    <edge id=":1693132977_3" function="internal">
        <lane id=":1693132977_3_0" index="0" disallow="tram rail_urban rail rail_electric ship" speed="50.00" length="5.44" shape="407.50,881.70 406.44,882.79 405.94,883.95 405.99,885.18 406.59,886.48"/>
    </edge>
    <edge id=":1693132977_4" function="internal">
        <lane id=":1693132977_4_0" index="0" speed="50.00" length="10.05" shape="407.50,881.70 405.10,883.49 403.40,884.63 401.74,885.82 399.49,887.76"/>
    </edge>
    <edge id=":1693132977_5" function="internal">
        <lane id=":1693132977_5_0" index="0" disallow="tram rail_urban rail rail_electric ship" speed="50.00" length="5.63" shape="405.50,879.08 403.01,880.51 400.66,880.74 400.30,880.58"/>
    </edge>
    <edge id=":1693132977_13" function="internal">
        <lane id=":1693132977_13_0" index="0" speed="50.00" length="4.97" shape="400.30,880.58 398.46,879.79 396.40,877.64"/>
    </edge>
    <edge id=":1693132977_6" function="internal">
        <lane id=":1693132977_6_0" index="0" disallow="tram rail_urban rail rail_electric ship" speed="50.00" length="5.03" shape="399.07,875.71 400.03,876.70 401.08,877.14 402.20,877.02 403.41,876.34"/>
    </edge>
    <edge id=":1693132977_7" function="internal">
        <lane id=":1693132977_7_0" index="0" disallow="tram rail_urban rail rail_electric ship" speed="50.00" length="13.14" shape="399.07,875.71 401.10,878.51 402.90,881.04 404.67,883.60 406.59,886.48"/>
    </edge>
    <edge id=":1693132977_8" function="internal">
        <lane id=":1693132977_8_0" index="0" speed="50.00" length="7.39" shape="399.07,875.71 401.13,879.26 401.88,882.45"/>
    </edge>
    <edge id=":1693132977_14" function="internal">
        <lane id=":1693132977_14_0" index="0" speed="50.00" length="5.97" shape="401.88,882.45 401.34,885.28 399.49,887.76"/>
    </edge>
    <edge id=":1693132977_9" function="internal">
        <lane id=":1693132977_9_0" index="0" disallow="tram rail_urban rail rail_electric ship" speed="50.00" length="5.99" shape="395.01,882.87 396.27,881.48 396.92,880.15 396.96,878.87 396.40,877.64"/>
    </edge>
    <edge id=":1693132977_10" function="internal">
        <lane id=":1693132977_10_0" index="0" disallow="tram rail_urban rail rail_electric ship" speed="50.00" length="10.65" shape="395.01,882.87 397.42,880.77 399.20,879.40 400.97,878.14 403.41,876.34"/>
    </edge>
    <edge id=":1693132977_11" function="internal">
        <lane id=":1693132977_11_0" index="0" disallow="tram rail_urban rail rail_electric ship" speed="50.00" length="5.89" shape="397.24,885.30 399.84,883.55 402.26,883.16 402.54,883.28"/>
    </edge>
    <edge id=":1693132977_15" function="internal">
        <lane id=":1693132977_15_0" index="0" speed="50.00" length="5.29" shape="402.54,883.28 404.51,884.14 406.59,886.48"/>
    </edge>
    <edge id=":1693132995_0" function="internal">
        <lane id=":1693132995_0_0" index="0" disallow="tram rail_urban rail rail_electric ship" speed="50.00" length="4.82" shape="787.03,1546.07 786.90,1547.55 786.37,1548.31 785.45,1548.34 784.13,1547.65"/>
    </edge>
    <edge id=":1827463990_0" function="internal">
        <lane id=":1827463990_0_0" index="0" disallow="tram rail_urban rail rail_electric ship" speed="50.00" length="5.17" shape="298.34,970.19 294.27,973.37"/>
    </edge>
    <edge id=":1827463990_1" function="internal">
        <lane id=":1827463990_1_0" index="0" allow="bicycle" speed="27.78" length="3.32" width="1.00" shape="298.34,970.19 296.79,970.84 295.19,970.50"/>
    </edge>
    <edge id=":1827463990_8" function="internal">
        <lane id=":1827463990_8_0" index="0" speed="27.78" length="5.02" width="1.00" shape="295.19,970.50 293.52,969.17 291.79,966.85"/>
    </edge>
    <edge id=":1827463990_2" function="internal">
        <lane id=":1827463990_2_0" index="0" disallow="tram rail_urban rail rail_electric ship" speed="27.78" length="4.23" shape="292.73,966.27 293.57,967.36 294.42,967.94 295.27,968.00 296.12,967.54"/>
    </edge>
    <edge id=":1827463990_3" function="internal">
        <lane id=":1827463990_3_0" index="0" disallow="tram rail_urban rail rail_electric ship" speed="27.78" length="7.76" shape="292.73,966.27 294.12,968.79 294.84,970.81 294.89,972.34 294.27,973.37"/>
    </edge>
    <edge id=":1827463990_4" function="internal">
        <lane id=":1827463990_4_0" index="0" allow="bicycle" speed="5.56" length="1.61" width="1.00" shape="292.73,966.27 292.71,966.76 292.55,967.03 292.24,967.06 291.79,966.85"/>
    </edge>
    <edge id=":1827463990_5" function="internal">
        <lane id=":1827463990_5_0" index="0" allow="bicycle" speed="27.78" length="4.35" width="1.00" shape="292.17,970.82 292.67,970.15 292.77,969.26 292.48,968.16 291.79,966.85"/>
    </edge>
    <edge id=":1827463990_6" function="internal">
        <lane id=":1827463990_6_0" index="0" disallow="tram rail_urban rail rail_electric ship" speed="50.00" length="5.13" shape="292.17,970.82 296.12,967.54"/>
    </edge>
    <edge id=":1827463990_7" function="internal">
        <lane id=":1827463990_7_0" index="0" disallow="tram rail_urban rail rail_electric ship" speed="50.00" length="2.51" shape="292.17,970.82 293.65,970.67 294.50,971.05 294.52,971.15"/>
    </edge>
    <edge id=":1827463990_9" function="internal">
        <lane id=":1827463990_9_0" index="0" speed="50.00" length="2.31" shape="294.52,971.15 294.70,971.95 294.27,973.37"/>
    </edge>
    <edge id=":1827463990#1_0" function="internal">
        <lane id=":1827463990#1_0_0" index="0" disallow="tram rail_urban rail rail_electric ship" speed="50.00" length="3.02" shape="343.79,927.59 345.82,925.36"/>
    </edge>
    <edge id=":1827464011_0" function="internal">
        <lane id=":1827464011_0_0" index="0" allow="bicycle" speed="5.56" length="1.61" width="1.00" shape="0.20,584.97 -0.28,584.87 -0.51,584.66 -0.48,584.36 -0.20,583.95"/>
    </edge>
    <edge id=":2126263239_0" function="internal">
        <lane id=":2126263239_0_0" index="0" allow="bicycle" speed="5.56" length="5.00" width="1.00" shape="242.97,885.65 240.40,881.36"/>
    </edge>
    <edge id=":2126263239_1" function="internal">
        <lane id=":2126263239_1_0" index="0" allow="bicycle pedestrian" speed="4.17" length="4.60" width="2.00" shape="242.97,885.65 242.56,884.57 242.68,883.60 243.32,882.74 244.49,881.99"/>
    </edge>
    <edge id=":2126263239_2" function="internal">
        <lane id=":2126263239_2_0" index="0" allow="bicycle" speed="5.56" length="1.61" width="1.00" shape="242.97,885.65 243.00,885.15 243.16,884.90 243.47,884.87 243.92,885.09"/>
    </edge>
    <edge id=":2126263239_3" function="internal">
        <lane id=":2126263239_3_0" index="0" allow="bicycle pedestrian" speed="4.17" length="3.76" width="2.00" shape="241.35,880.79 242.02,881.66 242.77,882.14 243.59,882.25 244.49,881.99"/>
    </edge>
    <edge id=":2126263239_4" function="internal">
        <lane id=":2126263239_4_0" index="0" allow="bicycle" speed="5.56" length="5.00" width="1.00" shape="241.35,880.79 243.92,885.09"/>
    </edge>
    <edge id=":2126263239_5" function="internal">
        <lane id=":2126263239_5_0" index="0" allow="bicycle" speed="5.56" length="1.61" width="1.00" shape="241.35,880.79 241.32,881.29 241.16,881.55 240.85,881.57 240.40,881.36"/>
    </edge>
    <edge id=":2126263257_0" function="internal">
        <lane id=":2126263257_0_0" index="0" allow="bicycle" speed="5.56" length="5.04" width="1.00" shape="282.19,951.48 279.57,947.18"/>
    </edge>
    <edge id=":2126263257_1" function="internal">
        <lane id=":2126263257_1_0" index="0" allow="bicycle pedestrian" speed="4.17" length="4.59" width="2.00" shape="282.19,951.48 281.76,950.41 281.85,949.44 282.47,948.56 283.61,947.78"/>
    </edge>
    <edge id=":2126263257_2" function="internal">
        <lane id=":2126263257_2_0" index="0" allow="bicycle" speed="5.56" length="1.61" width="1.00" shape="282.19,951.48 282.21,950.98 282.37,950.72 282.67,950.69 283.12,950.90"/>
    </edge>
    <edge id=":2126263257_3" function="internal">
        <lane id=":2126263257_3_0" index="0" allow="bicycle pedestrian" speed="4.17" length="3.73" width="2.00" shape="280.51,946.62 281.18,947.49 281.92,947.97 282.73,948.07 283.61,947.78"/>
    </edge>
    <edge id=":2126263257_4" function="internal">
        <lane id=":2126263257_4_0" index="0" allow="bicycle" speed="5.56" length="5.01" width="1.00" shape="280.51,946.62 283.12,950.90"/>
    </edge>
    <edge id=":2126263257_5" function="internal">
        <lane id=":2126263257_5_0" index="0" allow="bicycle" speed="5.56" length="1.61" width="1.00" shape="280.51,946.62 280.49,947.11 280.32,947.37 280.01,947.39 279.57,947.18"/>
    </edge>
    <edge id=":2126263276_0" function="internal">
        <lane id=":2126263276_0_0" index="0" allow="delivery bicycle pedestrian" speed="5.56" length="4.92" shape="316.36,854.25 316.22,849.32"/>
    </edge>
    <edge id=":2126263276_1" function="internal">
        <lane id=":2126263276_1_0" index="0" allow="delivery bicycle pedestrian" speed="5.56" length="2.41" shape="316.36,854.25 317.12,852.97 317.92,852.51"/>
    </edge>
    <edge id=":2126263276_6" function="internal">
        <lane id=":2126263276_6_0" index="0" speed="5.56" length="2.41" shape="317.92,852.51 318.77,852.88 319.66,854.08"/>
    </edge>
    <edge id=":2126263276_2" function="internal">
        <lane id=":2126263276_2_0" index="0" allow="delivery bicycle pedestrian" speed="5.56" length="3.11" shape="319.53,850.97 319.66,854.08"/>
    </edge>
    <edge id=":2126263276_3" function="internal">
        <lane id=":2126263276_3_0" index="0" allow="delivery bicycle pedestrian" speed="5.56" length="1.86" shape="319.53,850.97 318.08,851.80 317.89,851.80"/>
    </edge>
    <edge id=":2126263276_7" function="internal">
        <lane id=":2126263276_7_0" index="0" speed="5.56" length="3.54" shape="317.89,851.80 317.05,851.80 316.43,850.98 316.22,849.32"/>
    </edge>
    <edge id=":2126263276_4" function="internal">
        <lane id=":2126263276_4_0" index="0" allow="delivery bicycle pedestrian" speed="4.17" length="4.53" shape="313.14,851.91 314.49,851.69 315.45,851.18 316.03,850.39 316.22,849.32"/>
    </edge>
    <edge id=":2126263276_5" function="internal">
        <lane id=":2126263276_5_0" index="0" allow="delivery bicycle pedestrian" speed="4.17" length="7.46" shape="313.14,851.91 315.94,851.92 317.96,852.28 319.20,853.00 319.66,854.08"/>
    </edge>
    <edge id=":2126263282_0" function="internal">
        <lane id=":2126263282_0_0" index="0" allow="delivery bicycle pedestrian" speed="5.56" length="10.30" shape="324.46,887.67 321.65,887.41 319.60,886.31 318.30,884.37 317.76,881.60"/>
    </edge>
    <edge id=":2126263282_1" function="internal">
        <lane id=":2126263282_1_0" index="0" allow="delivery bicycle pedestrian" speed="5.56" length="2.69" shape="324.46,887.67 323.19,886.91 322.74,886.10 322.85,885.85"/>
    </edge>
    <edge id=":2126263282_6" function="internal">
        <lane id=":2126263282_6_0" index="0" speed="5.56" length="2.13" shape="322.85,885.85 323.11,885.26 324.30,884.38"/>
    </edge>
    <edge id=":2126263282_2" function="internal">
        <lane id=":2126263282_2_0" index="0" allow="delivery bicycle pedestrian" speed="5.56" length="5.00" shape="321.06,881.43 321.32,882.78 321.95,883.71 322.94,884.25 324.30,884.38"/>
    </edge>
    <edge id=":2126263282_3" function="internal">
        <lane id=":2126263282_3_0" index="0" allow="delivery bicycle pedestrian" speed="5.56" length="2.20" shape="321.06,881.43 320.29,882.71 319.68,883.06"/>
    </edge>
    <edge id=":2126263282_7" function="internal">
        <lane id=":2126263282_7_0" index="0" speed="5.56" length="2.62" shape="319.68,883.06 319.49,883.17 318.65,882.80 317.76,881.60"/>
    </edge>
    <edge id=":2126263282_4" function="internal">
        <lane id=":2126263282_4_0" index="0" allow="delivery bicycle pedestrian" speed="4.17" length="13.51" shape="317.10,894.94 317.64,894.05 317.93,891.53 317.97,887.38 317.76,881.60"/>
    </edge>
    <edge id=":2126263282_5" function="internal">
        <lane id=":2126263282_5_0" index="0" allow="delivery bicycle pedestrian" speed="4.17" length="13.52" shape="317.10,894.94 319.62,893.07 320.69,889.52 321.77,886.04 324.30,884.38"/>
    </edge>
    <edge id=":24965381_0" function="internal">
        <lane id=":24965381_0_0" index="0" disallow="tram rail_urban rail rail_electric ship" speed="50.00" length="4.67" width="3.00" shape="45.13,1175.82 43.69,1175.87 42.90,1175.45 42.76,1174.57 43.27,1173.22"/>
    </edge>
    <edge id=":24965384_0" function="internal">
        <lane id=":24965384_0_0" index="0" disallow="tram rail_urban rail rail_electric ship" speed="50.00" length="0.10" shape="76.81,80.57 76.80,80.55"/>
    </edge>
    <edge id=":24965384_1" function="internal">
        <lane id=":24965384_1_0" index="0" disallow="tram rail_urban rail rail_electric ship" speed="50.00" length="2.41" shape="76.81,80.57 77.13,79.12 77.76,78.44"/>
    </edge>
    <edge id=":24965384_4" function="internal">
        <lane id=":24965384_4_0" index="0" speed="50.00" length="2.41" shape="77.76,78.44 78.68,78.53 79.89,79.39"/>
    </edge>
    <edge id=":24965384_2" function="internal">
        <lane id=":24965384_2_0" index="0" disallow="tram rail_urban rail rail_electric ship" speed="50.00" length="0.10" shape="79.90,79.43 79.89,79.39"/>
    </edge>
    <edge id=":24965384_3" function="internal">
        <lane id=":24965384_3_0" index="0" disallow="tram rail_urban rail rail_electric ship" speed="50.00" length="2.41" shape="79.90,79.43 79.55,80.87 78.91,81.54"/>
    </edge>
    <edge id=":24965384_5" function="internal">
        <lane id=":24965384_5_0" index="0" speed="50.00" length="2.41" shape="78.91,81.54 77.99,81.43 76.80,80.55"/>
    </edge>
    <edge id=":288204511_0" function="internal">
        <lane id=":288204511_0_0" index="0" disallow="tram rail_urban rail rail_electric ship" speed="50.00" length="4.82" shape="47.95,0.56 48.30,-0.88 48.94,-1.55 49.86,-1.44 51.05,-0.56"/>
    </edge>
    <edge id=":288205973_0" function="internal">
        <lane id=":288205973_0_0" index="0" disallow="tram rail_urban rail rail_electric ship" speed="50.00" length="4.82" shape="416.88,460.24 417.00,458.76 417.52,458.00 418.44,457.96 419.76,458.64"/>
    </edge>
    <edge id=":288206042_0" function="internal">
        <lane id=":288206042_0_0" index="0" disallow="tram rail_urban rail rail_electric ship" speed="50.00" length="9.16" shape="562.65,790.20 554.03,793.28"/>
    </edge>
    <edge id=":288206042_1" function="internal">
        <lane id=":288206042_1_0" index="0" disallow="tram rail_urban rail rail_electric ship" speed="50.00" length="5.03" shape="562.65,790.20 559.96,790.64 557.71,790.13"/>
    </edge>
    <edge id=":288206042_2" function="internal">
        <lane id=":288206042_2_0" index="0" disallow="tram rail_urban rail rail_electric ship" speed="50.00" length="2.41" shape="562.65,790.20 561.22,789.79 560.58,789.12"/>
    </edge>
    <edge id=":288206042_7" function="internal">
        <lane id=":288206042_7_0" index="0" speed="50.00" length="5.12" shape="557.71,790.13 555.92,788.65 554.57,786.20"/>
    </edge>
    <edge id=":288206042_8" function="internal">
        <lane id=":288206042_8_0" index="0" speed="50.00" length="2.41" shape="560.58,789.12 560.72,788.21 561.65,787.05"/>
    </edge>
    <edge id=":288206042_3" function="internal">
        <lane id=":288206042_3_0" index="0" disallow="tram rail_urban rail rail_electric ship" speed="50.00" length="5.05" shape="557.65,785.02 558.33,786.25 559.22,787.00 560.33,787.27 561.65,787.05"/>
    </edge>
    <edge id=":288206042_4" function="internal">
        <lane id=":288206042_4_0" index="0" disallow="tram rail_urban rail rail_electric ship" speed="50.00" length="4.82" shape="557.65,785.02 557.33,786.47 556.70,787.15 555.78,787.06 554.57,786.20"/>
    </edge>
    <edge id=":288206042_5" function="internal">
        <lane id=":288206042_5_0" index="0" disallow="tram rail_urban rail rail_electric ship" speed="50.00" length="4.99" shape="552.81,790.21 553.99,789.54 554.68,788.64 554.87,787.53 554.57,786.20"/>
    </edge>
    <edge id=":288206042_6" function="internal">
        <lane id=":288206042_6_0" index="0" disallow="tram rail_urban rail rail_electric ship" speed="50.00" length="9.39" shape="552.81,790.21 561.65,787.05"/>
    </edge>
    <edge id=":288206042#1_0" function="internal">
        <lane id=":288206042#1_0_0" index="0" disallow="tram rail_urban rail rail_electric ship" speed="50.00" length="2.44" shape="470.96,836.04 469.06,837.57"/>
    </edge>
    <edge id=":288206071_0" function="internal">
        <lane id=":288206071_0_0" index="0" disallow="tram rail_urban rail rail_electric ship" speed="50.00" length="4.82" shape="714.32,680.29 715.77,680.59 716.46,681.21 716.39,682.12 715.54,683.35"/>
    </edge>
    <edge id=":288206088_0" function="internal">
        <lane id=":288206088_0_0" index="0" disallow="tram rail_urban rail rail_electric ship" speed="50.00" length="5.60" shape="345.75,792.15 344.85,790.87 343.77,790.13 342.52,789.92 341.09,790.24"/>
    </edge>
    <edge id=":288206088_1" function="internal">
        <lane id=":288206088_1_0" index="0" disallow="tram rail_urban rail rail_electric ship" speed="50.00" length="10.11" shape="345.75,792.15 344.36,789.50 343.46,787.64 342.67,785.72 341.60,782.93"/>
    </edge>
    <edge id=":288206088_2" function="internal">
        <lane id=":288206088_2_0" index="0" disallow="tram rail_urban rail rail_electric ship" speed="50.00" length="10.64" shape="345.75,792.15 344.76,789.38 344.93,787.01 346.26,785.03 348.74,783.45"/>
    </edge>
    <edge id=":288206088_3" function="internal">
        <lane id=":288206088_3_0" index="0" disallow="tram rail_urban rail rail_electric ship" speed="50.00" length="4.82" shape="345.75,792.15 345.90,790.67 346.44,789.92 347.36,789.90 348.67,790.61"/>
    </edge>
    <edge id=":288206088_4" function="internal">
        <lane id=":288206088_4_0" index="0" disallow="tram rail_urban rail rail_electric ship" speed="50.00" length="5.09" shape="350.11,786.45 348.92,787.21 348.28,788.16 348.20,789.29 348.67,790.61"/>
    </edge>
    <edge id=":288206088_5" function="internal">
        <lane id=":288206088_5_0" index="0" disallow="tram rail_urban rail rail_electric ship" speed="50.00" length="9.78" shape="350.11,786.45 341.09,790.24"/>
    </edge>
    <edge id=":288206088_6" function="internal">
        <lane id=":288206088_6_0" index="0" disallow="tram rail_urban rail rail_electric ship" speed="50.00" length="10.65" shape="350.11,786.45 347.28,787.27 344.92,786.96 343.03,785.51 341.60,782.93"/>
    </edge>
    <edge id=":288206088_7" function="internal">
        <lane id=":288206088_7_0" index="0" disallow="tram rail_urban rail rail_electric ship" speed="50.00" length="4.82" shape="350.11,786.45 348.64,786.21 347.92,785.63 347.96,784.71 348.74,783.45"/>
    </edge>
    <edge id=":288206088_8" function="internal">
        <lane id=":288206088_8_0" index="0" disallow="tram rail_urban rail rail_electric ship" speed="50.00" length="5.08" shape="344.69,781.77 345.37,783.00 346.27,783.69 347.40,783.84 348.74,783.45"/>
    </edge>
    <edge id=":288206088_9" function="internal">
        <lane id=":288206088_9_0" index="0" disallow="tram rail_urban rail rail_electric ship" speed="50.00" length="9.69" shape="344.69,781.77 348.67,790.61"/>
    </edge>
    <edge id=":288206088_10" function="internal">
        <lane id=":288206088_10_0" index="0" disallow="tram rail_urban rail rail_electric ship" speed="50.00" length="10.48" shape="344.69,781.77 345.34,784.62 344.96,786.98 343.54,788.85 341.09,790.24"/>
    </edge>
    <edge id=":288206088_11" function="internal">
        <lane id=":288206088_11_0" index="0" disallow="tram rail_urban rail rail_electric ship" speed="50.00" length="4.82" shape="344.69,781.77 344.36,783.22 343.73,783.90 342.81,783.80 341.60,782.93"/>
    </edge>
    <edge id=":288206088_12" function="internal">
        <lane id=":288206088_12_0" index="0" disallow="tram rail_urban rail rail_electric ship" speed="50.00" length="5.19" shape="339.90,787.16 341.09,786.48 341.77,785.55 341.94,784.37 341.60,782.93"/>
    </edge>
    <edge id=":288206088_13" function="internal">
        <lane id=":288206088_13_0" index="0" disallow="tram rail_urban rail rail_electric ship" speed="50.00" length="9.59" shape="339.90,787.16 348.74,783.45"/>
    </edge>
    <edge id=":288206088_14" function="internal">
        <lane id=":288206088_14_0" index="0" disallow="tram rail_urban rail rail_electric ship" speed="50.00" length="10.49" shape="339.90,787.16 342.61,786.54 344.98,786.91 347.00,788.27 348.67,790.61"/>
    </edge>
    <edge id=":288206088_15" function="internal">
        <lane id=":288206088_15_0" index="0" disallow="tram rail_urban rail rail_electric ship" speed="50.00" length="4.82" shape="339.90,787.16 341.35,787.49 342.03,788.11 341.94,789.03 341.09,790.24"/>
    </edge>
    <edge id=":288206092_0" function="internal">
        <lane id=":288206092_0_0" index="0" disallow="tram rail_urban rail rail_electric ship" speed="50.00" length="5.06" shape="525.25,710.73 524.56,709.52 523.65,708.84 522.53,708.70 521.19,709.09"/>
    </edge>
    <edge id=":288206092_1" function="internal">
        <lane id=":288206092_1_0" index="0" disallow="tram rail_urban rail rail_electric ship" speed="50.00" length="9.51" shape="525.25,710.73 521.76,701.89"/>
    </edge>
    <edge id=":288206092_2" function="internal">
        <lane id=":288206092_2_0" index="0" disallow="tram rail_urban rail rail_electric ship" speed="50.00" length="2.41" shape="525.25,710.73 525.56,709.28 526.18,708.59"/>
    </edge>
    <edge id=":288206092_9" function="internal">
        <lane id=":288206092_9_0" index="0" speed="50.00" length="2.41" shape="526.18,708.59 527.10,708.67 528.32,709.52"/>
    </edge>
    <edge id=":288206092_3" function="internal">
        <lane id=":288206092_3_0" index="0" disallow="tram rail_urban rail rail_electric ship" speed="50.00" length="9.51" shape="524.83,700.68 528.32,709.52"/>
    </edge>
    <edge id=":288206092_4" function="internal">
        <lane id=":288206092_4_0" index="0" disallow="tram rail_urban rail rail_electric ship" speed="50.00" length="5.08" shape="524.83,700.68 525.45,703.36 525.05,705.65"/>
    </edge>
    <edge id=":288206092_5" function="internal">
        <lane id=":288206092_5_0" index="0" disallow="tram rail_urban rail rail_electric ship" speed="50.00" length="2.41" shape="524.83,700.68 524.51,702.13 523.90,702.82"/>
    </edge>
    <edge id=":288206092_10" function="internal">
        <lane id=":288206092_10_0" index="0" speed="50.00" length="5.26" shape="525.05,705.65 523.63,707.56 521.19,709.09"/>
    </edge>
    <edge id=":288206092_11" function="internal">
        <lane id=":288206092_11_0" index="0" speed="50.00" length="2.41" shape="523.90,702.82 522.98,702.74 521.76,701.89"/>
    </edge>
    <edge id=":288206092_6" function="internal">
        <lane id=":288206092_6_0" index="0" disallow="tram rail_urban rail rail_electric ship" speed="50.00" length="5.20" shape="519.83,706.08 521.09,705.30 521.83,704.34 522.05,703.21 521.76,701.89"/>
    </edge>
    <edge id=":288206092_7" function="internal">
        <lane id=":288206092_7_0" index="0" disallow="tram rail_urban rail rail_electric ship" speed="50.00" length="10.57" shape="519.83,706.08 522.63,705.27 524.98,705.57 526.87,706.99 528.32,709.52"/>
    </edge>
    <edge id=":288206092_8" function="internal">
        <lane id=":288206092_8_0" index="0" disallow="tram rail_urban rail rail_electric ship" speed="50.00" length="4.82" shape="519.83,706.08 521.29,706.32 522.01,706.90 521.97,707.82 521.19,709.09"/>
    </edge>
    <edge id=":288206093_0" function="internal">
        <lane id=":288206093_0_0" index="0" disallow="tram rail_urban rail rail_electric ship" speed="50.00" length="9.45" shape="539.33,746.48 535.90,737.67"/>
    </edge>
    <edge id=":288206093_1" function="internal">
        <lane id=":288206093_1_0" index="0" disallow="tram rail_urban rail rail_electric ship" speed="50.00" length="5.11" shape="539.33,746.48 538.72,743.76 539.13,741.47"/>
    </edge>
    <edge id=":288206093_2" function="internal">
        <lane id=":288206093_2_0" index="0" disallow="tram rail_urban rail rail_electric ship" speed="50.00" length="2.41" shape="539.33,746.48 539.66,745.03 540.28,744.34"/>
    </edge>
    <edge id=":288206093_9" function="internal">
        <lane id=":288206093_9_0" index="0" speed="50.00" length="5.19" shape="539.13,741.47 540.56,739.61 543.01,738.17"/>
    </edge>
    <edge id=":288206093_10" function="internal">
        <lane id=":288206093_10_0" index="0" speed="50.00" length="2.41" shape="540.28,744.34 541.20,744.43 542.41,745.29"/>
    </edge>
    <edge id=":288206093_3" function="internal">
        <lane id=":288206093_3_0" index="0" disallow="tram rail_urban rail rail_electric ship" speed="50.00" length="5.08" shape="544.27,741.22 543.05,741.93 542.33,742.85 542.12,743.97 542.41,745.29"/>
    </edge>
    <edge id=":288206093_4" function="internal">
        <lane id=":288206093_4_0" index="0" disallow="tram rail_urban rail rail_electric ship" speed="50.00" length="10.40" shape="544.27,741.22 541.50,741.92 539.18,741.57 537.32,740.15 535.90,737.67"/>
    </edge>
    <edge id=":288206093_5" function="internal">
        <lane id=":288206093_5_0" index="0" disallow="tram rail_urban rail rail_electric ship" speed="50.00" length="4.82" shape="544.27,741.22 542.81,740.93 542.11,740.32 542.18,739.40 543.01,738.17"/>
    </edge>
    <edge id=":288206093_6" function="internal">
        <lane id=":288206093_6_0" index="0" disallow="tram rail_urban rail rail_electric ship" speed="50.00" length="5.02" shape="538.97,736.46 539.65,737.65 540.55,738.34 541.67,738.51 543.01,738.17"/>
    </edge>
    <edge id=":288206093_7" function="internal">
        <lane id=":288206093_7_0" index="0" disallow="tram rail_urban rail rail_electric ship" speed="50.00" length="9.49" shape="538.97,736.46 542.41,745.29"/>
    </edge>
    <edge id=":288206093_8" function="internal">
        <lane id=":288206093_8_0" index="0" disallow="tram rail_urban rail rail_electric ship" speed="50.00" length="2.41" shape="538.97,736.46 538.66,737.91 538.04,738.60"/>
    </edge>
    <edge id=":288206093_11" function="internal">
        <lane id=":288206093_11_0" index="0" speed="50.00" length="2.41" shape="538.04,738.60 537.12,738.52 535.90,737.67"/>
    </edge>
    <edge id=":288206447_0" function="internal">
        <lane id=":288206447_0_0" index="0" disallow="tram rail_urban rail rail_electric ship" speed="50.00" length="4.82" shape="984.78,683.40 986.13,684.01 986.68,684.76 986.41,685.64 985.32,686.66"/>
    </edge>
    <edge id=":288206448_0" function="internal">
        <lane id=":288206448_0_0" index="0" disallow="tram rail_urban rail rail_electric ship" speed="50.00" length="9.60" shape="467.16,991.37 462.44,983.01"/>
    </edge>
    <edge id=":288206448_1" function="internal">
        <lane id=":288206448_1_0" index="0" disallow="tram rail_urban rail rail_electric ship" speed="50.00" length="5.42" shape="467.16,991.37 466.01,988.39 466.18,986.17"/>
    </edge>
    <edge id=":288206448_2" function="internal">
        <lane id=":288206448_2_0" index="0" disallow="tram rail_urban rail rail_electric ship" speed="50.00" length="2.41" shape="467.16,991.37 467.27,989.89 467.79,989.13"/>
    </edge>
    <edge id=":288206448_9" function="internal">
        <lane id=":288206448_9_0" index="0" speed="50.00" length="5.91" shape="466.18,986.17 466.19,985.93 467.71,983.98 470.57,982.54"/>
    </edge>
    <edge id=":288206448_10" function="internal">
        <lane id=":288206448_10_0" index="0" speed="50.00" length="2.41" shape="467.79,989.13 468.71,989.08 470.04,989.76"/>
    </edge>
    <edge id=":288206448_3" function="internal">