<routes>
        <vType id="typeWE" accel="0.8" decel="4.5" sigma="0.5" length="5" minGap="2.5" maxSpeed="16.67" guiShape="passenger"/>
        <!-- <vType id="typeNS" accel="0.8" decel="4.5" sigma="0.5" length="7" minGap="3" maxSpeed="25" guiShape="bus"/> -->
	<vType id="typeNS" accel="0.8" decel="4.5" sigma="0.5" length="5" minGap="2.5" maxSpeed="16.67" guiShape="passenger"/>

	<route id="left" edges="366845096#0 366845096#1 366845096#20 366845096#22 366845096#3 366845096#4 366845096#5"/>
	<route id="left_up" edges="366845096#0 366845096#1 366845096#20 366845096#22 -157076458#1 -157076458#0"/>
	<route id="left_down" edges="366845096#0 366845096#1 366845096#20 366845096#22 -26446721#2 -26446721#1 -26446721#0"/>

	<route id="right" edges="-366845096#5 -366845096#4 -366845096#30 -366845096#32 -366845096#2 -366845096#1 -366845096#0 "/>
	<route id="right_up" edges="-366845096#5 -366845096#4 -366845096#30 -366845096#32 -157076458#1 -157076458#0 "/>
	<route id="right_down" edges="-366845096#5 -366845096#4 -366845096#30 -366845096#32 -26446721#2 -26446721#1 -26446721#0"/>

	<route id="up" edges="157076458#0 157076458#1 -26446721#2 -26446721#1 -26446721#0"/>
	<!-- <route id="up_left" edges="157076458#0 157076458#1 -366845096#2 -366845096#1 -366845096#0"/> -->
	<!-- <route id="up_right" edges="157076458#0 157076458#1 366845096#3 366845096#4 366845096#5"/> -->

	<route id="down" edges="26446721#0 26446721#1 26446721#2 -157076458#1 -157076458#0"/>
	<!-- <route id="down_left" edges="26446721#0 26446721#1 26446721#2 -366845096#2 -366845096#1 -366845096#0"/> -->
	<!-- <route id="down_right" edges="26446721#0 26446721#1 26446721#2 366845096#3 366845096#4 366845096#5"/> -->
	
	
	<vehicle id="left_0" type="typeWE" route="left" depart="0" />
	<vehicle id="left_1" type="typeWE" route="left" depart="5" />
	<vehicle id="left_2" type="typeWE" route="left" depart="10" />
	
	<vehicle id="right_1" type="typeWE" route="right" depart="10" />
	<vehicle id="right_2" type="typeWE" route="right" depart="11" />
	<vehicle id="right_3" type="typeWE" route="right" depart="11" />
	<vehicle id="right_4" type="typeWE" route="right" depart="11" />
	<vehicle id="right_5" type="typeWE" route="right" depart="12" />
	<vehicle id="right_6" type="typeWE" route="right" depart="12" />
	<vehicle id="right_7" type="typeWE" route="right" depart="12" />
	<vehicle id="right_8" type="typeWE" route="right" depart="12" />
	<vehicle id="right_9" type="typeWE" route="right" depart="12" />
	<vehicle id="right_10" type="typeWE" route="right" depart="12" />
	<vehicle id="right_11" type="typeWE" route="right" depart="12" />
	<vehicle id="right_12" type="typeWE" route="right" depart="12" />
	<vehicle id="right_13" type="typeWE" route="right" depart="12" />
	<vehicle id="right_14" type="typeWE" route="right" depart="12" />
	<vehicle id="right_15" type="typeWE" route="right" depart="12" />
	<vehicle id="right_16" type="typeWE" route="right" depart="12" />

	<vehicle id="right_up_1" type="typeWE" route="right_up" depart="12" />
	<vehicle id="right_down_1" type="typeWE" route="right_down" depart="12" />

	<vehicle id="up_1" type="typeWE" route="up" depart="12" />

	<vehicle id="down_1" type="typeWE" route="down" depart="12" />

	
	<vehicle id="left_3" type="typeWE" route="left" depart="15" />	
	<vehicle id="left_4" type="typeWE" route="left_up" depart="16" />

	<vehicle id="left_41" type="typeWE" route="left_up" depart="16" />
	<vehicle id="left_42" type="typeWE" route="left_up" depart="16" />
	<vehicle id="left_43" type="typeWE" route="left_up" depart="16" />
	<vehicle id="left_44" type="typeWE" route="left_up" depart="16" />
	<vehicle id="left_45" type="typeWE" route="left_up" depart="16" />
	<vehicle id="left_46" type="typeWE" route="left_up" depart="16" />
	<vehicle id="left_47" type="typeWE" route="left_up" depart="16" />
	<vehicle id="left_48" type="typeWE" route="left_up" depart="16" />
	<vehicle id="left_49" type="typeWE" route="left_up" depart="16" />
	<vehicle id="left_410" type="typeWE" route="left_up" depart="16" />
	<vehicle id="left_411" type="typeWE" route="left_up" depart="16" />
	<vehicle id="left_412" type="typeWE" route="left_up" depart="16" />


	<vehicle id="left_5" type="typeWE" route="left_up" depart="17" />
	<vehicle id="left_6" type="typeWE" route="left_up" depart="18" />
	<vehicle id="left_7" type="typeWE" route="left_up" depart="19" />
	<vehicle id="left_8" type="typeWE" route="left_down" depart="20" />
	<vehicle id="left_9" type="typeWE" route="left_down" depart="21" />
	<vehicle id="left_10" type="typeWE" route="left_down" depart="22" />

	
	
	
</routes>
