<?xml version="1.0" encoding="UTF-8"?>

<!-- generated on Thu Oct  6 10:50:26 2016 by SUMO netconvert Version 0.25.0
<?xml version="1.0" encoding="UTF-8"?>

<configuration xmlns:xsi="http://www.w3.org/2001/XMLSchema-instance" xsi:noNamespaceSchemaLocation="http://sumo.dlr.de/xsd/netconvertConfiguration.xsd">

    <input>
        <type-files value="/home/muniz/sumo/sumo//data/typemap/osmNetconvert.typ.xml"/>
        <osm-files value="map.osm"/>
    </input>

    <output>
        <output-file value="nylandsvej1.net.xml"/>
    </output>

    <projection>
        <proj.utm value="true"/>
    </projection>

</configuration>
-->

<net version="0.25" xmlns:xsi="http://www.w3.org/2001/XMLSchema-instance" xsi:noNamespaceSchemaLocation="http://sumo.dlr.de/xsd/net_file.xsd">

    <location netOffset="-322079.42,-6153203.22" convBoundary="0.00,0.00,883.04,1569.01" origBoundary="12.183246,55.492518,12.196734,55.506827" projParameter="+proj=utm +zone=33 +ellps=WGS84 +datum=WGS84 +units=m +no_defs"/>

    <type id="highway.bridleway" priority="1" numLanes="1" speed="2.78" allow="pedestrian" oneway="1" width="2.00"/>
    <type id="highway.bus_guideway" priority="1" numLanes="1" speed="8.33" allow="bus" oneway="1"/>
    <type id="highway.cycleway" priority="1" numLanes="1" speed="5.56" allow="bicycle" oneway="0" width="1.00"/>
    <type id="highway.footway" priority="1" numLanes="1" speed="2.78" allow="pedestrian" oneway="1" width="2.00"/>
    <type id="highway.ford" priority="1" numLanes="1" speed="2.78" allow="army" oneway="0"/>
    <type id="highway.living_street" priority="3" numLanes="1" speed="2.78" disallow="tram rail_urban rail rail_electric ship" oneway="0"/>
    <type id="highway.motorway" priority="13" numLanes="2" speed="44.44" allow="private emergency authority army vip passenger hov taxi bus coach delivery truck trailer motorcycle evehicle custom1 custom2" oneway="1"/>
    <type id="highway.motorway_link" priority="12" numLanes="1" speed="22.22" allow="private emergency authority army vip passenger hov taxi bus coach delivery truck trailer motorcycle evehicle custom1 custom2" oneway="1"/>
    <type id="highway.path" priority="1" numLanes="1" speed="2.78" allow="bicycle pedestrian" oneway="1" width="2.00"/>
    <type id="highway.pedestrian" priority="1" numLanes="1" speed="2.78" allow="pedestrian" oneway="1" width="2.00"/>
    <type id="highway.primary" priority="9" numLanes="2" speed="27.78" disallow="tram rail_urban rail rail_electric ship" oneway="0"/>
    <type id="highway.primary_link" priority="8" numLanes="1" speed="22.22" disallow="tram rail_urban rail rail_electric ship" oneway="0"/>
    <type id="highway.raceway" priority="14" numLanes="2" speed="83.33" allow="vip" oneway="0"/>
    <type id="highway.residential" priority="4" numLanes="1" speed="13.89" disallow="tram rail_urban rail rail_electric ship" oneway="0"/>
    <type id="highway.secondary" priority="7" numLanes="2" speed="27.78" disallow="tram rail_urban rail rail_electric ship" oneway="0"/>
    <type id="highway.secondary_link" priority="6" numLanes="1" speed="22.22" disallow="tram rail_urban rail rail_electric ship" oneway="0"/>
    <type id="highway.service" priority="2" numLanes="1" speed="5.56" allow="delivery bicycle pedestrian" oneway="0"/>
    <type id="highway.services" priority="1" numLanes="1" speed="8.33" disallow="tram rail_urban rail rail_electric ship" oneway="0"/>
    <type id="highway.stairs" priority="1" numLanes="1" speed="1.39" allow="pedestrian" oneway="1" width="2.00"/>
    <type id="highway.step" priority="1" numLanes="1" speed="1.39" allow="pedestrian" oneway="1" width="2.00"/>
    <type id="highway.steps" priority="1" numLanes="1" speed="1.39" allow="pedestrian" oneway="1" width="2.00"/>
    <type id="highway.tertiary" priority="6" numLanes="1" speed="22.22" disallow="tram rail_urban rail rail_electric ship" oneway="0"/>
    <type id="highway.tertiary_link" priority="5" numLanes="1" speed="22.22" disallow="tram rail_urban rail rail_electric ship" oneway="0"/>
    <type id="highway.track" priority="1" numLanes="1" speed="5.56" disallow="tram rail_urban rail rail_electric ship" oneway="0"/>
    <type id="highway.trunk" priority="11" numLanes="2" speed="27.78" disallow="tram rail_urban rail rail_electric bicycle pedestrian ship" oneway="0"/>
    <type id="highway.trunk_link" priority="10" numLanes="1" speed="22.22" disallow="tram rail_urban rail rail_electric bicycle pedestrian ship" oneway="0"/>
    <type id="highway.unclassified" priority="5" numLanes="1" speed="13.89" disallow="tram rail_urban rail rail_electric ship" oneway="0"/>
    <type id="highway.unsurfaced" priority="1" numLanes="1" speed="8.33" disallow="tram rail_urban rail rail_electric ship" oneway="0"/>
    <type id="railway.light_rail" priority="15" numLanes="1" speed="27.78" allow="rail_urban" oneway="1"/>
    <type id="railway.preserved" priority="15" numLanes="1" speed="27.78" allow="rail" oneway="1"/>
    <type id="railway.rail" priority="15" numLanes="1" speed="83.33" allow="rail rail_electric" oneway="1"/>
    <type id="railway.subway" priority="15" numLanes="1" speed="27.78" allow="rail_urban" oneway="1"/>
    <type id="railway.tram" priority="15" numLanes="1" speed="13.89" allow="tram" oneway="1"/>

    <edge id=":1693132977_0" function="internal">
        <lane id=":1693132977_0_0" index="0" disallow="tram rail_urban rail rail_electric ship" speed="13.89" length="5.19" shape="403.82,888.28 402.85,887.19 401.81,886.74 400.68,886.92 399.47,887.73"/>
    </edge>
    <edge id=":1693132977_1" function="internal">
        <lane id=":1693132977_1_0" index="0" disallow="tram rail_urban rail rail_electric ship" speed="13.89" length="10.19" shape="403.82,888.28 402.17,885.78 400.99,884.04 399.79,882.33 398.03,879.90"/>
    </edge>
    <edge id=":1693132977_2" function="internal">
        <lane id=":1693132977_2_0" index="0" disallow="tram rail_urban rail rail_electric ship" speed="13.89" length="10.98" shape="403.82,888.28 402.50,885.55 402.27,883.01 403.12,880.66 405.05,878.50"/>
    </edge>
    <edge id=":1693132977_3" function="internal">
        <lane id=":1693132977_3_0" index="0" disallow="tram rail_urban rail rail_electric ship" speed="13.89" length="4.82" shape="403.82,888.28 403.83,886.79 404.29,885.99 405.21,885.89 406.58,886.46"/>
    </edge>
    <edge id=":1693132977_4" function="internal">
        <lane id=":1693132977_4_0" index="0" disallow="tram rail_urban rail rail_electric ship" speed="13.89" length="6.08" shape="407.17,881.03 406.12,882.21 405.67,883.51 405.83,884.93 406.58,886.46"/>
    </edge>
    <edge id=":1693132977_5" function="internal">
        <lane id=":1693132977_5_0" index="0" disallow="tram rail_urban rail rail_electric ship" speed="13.89" length="10.20" shape="407.17,881.03 404.87,882.96 403.27,884.32 401.70,885.72 399.47,887.73"/>
    </edge>
    <edge id=":1693132977_6" function="internal">
        <lane id=":1693132977_6_0" index="0" disallow="tram rail_urban rail rail_electric ship" speed="13.89" length="5.33" shape="407.17,881.03 404.65,882.58 402.29,882.91"/>
    </edge>
    <edge id=":1693132977_7" function="internal">
        <lane id=":1693132977_7_0" index="0" disallow="tram rail_urban rail rail_electric ship" speed="13.89" length="2.41" shape="407.17,881.03 405.69,881.19 404.84,880.82"/>
    </edge>
    <edge id=":1693132977_16" function="internal">
        <lane id=":1693132977_16_0" index="0" speed="13.89" length="5.33" shape="402.29,882.91 400.09,882.01 398.03,879.90"/>
    </edge>
    <edge id=":1693132977_17" function="internal">
        <lane id=":1693132977_17_0" index="0" speed="13.89" length="2.41" shape="404.84,880.82 404.63,879.93 405.05,878.50"/>
    </edge>
    <edge id=":1693132977_8" function="internal">
        <lane id=":1693132977_8_0" index="0" disallow="tram rail_urban rail rail_electric ship" speed="13.89" length="5.08" shape="400.70,877.96 401.68,878.97 402.73,879.39 403.86,879.24 405.05,878.50"/>
    </edge>
    <edge id=":1693132977_9" function="internal">
        <lane id=":1693132977_9_0" index="0" disallow="tram rail_urban rail rail_electric ship" speed="13.89" length="10.34" shape="400.70,877.96 402.47,880.41 403.71,882.16 404.91,883.94 406.58,886.46"/>
    </edge>
    <edge id=":1693132977_10" function="internal">
        <lane id=":1693132977_10_0" index="0" disallow="tram rail_urban rail rail_electric ship" speed="13.89" length="10.98" shape="400.70,877.96 402.05,880.53 402.29,883.01 401.43,885.41 399.47,887.73"/>
    </edge>
    <edge id=":1693132977_11" function="internal">
        <lane id=":1693132977_11_0" index="0" disallow="tram rail_urban rail rail_electric ship" speed="13.89" length="4.82" shape="400.70,877.96 400.76,879.44 400.33,880.26 399.42,880.41 398.03,879.90"/>
    </edge>
    <edge id=":1693132977_12" function="internal">
        <lane id=":1693132977_12_0" index="0" disallow="tram rail_urban rail rail_electric ship" speed="13.89" length="6.07" shape="397.26,885.28 398.37,883.99 398.86,882.66 398.75,881.29 398.03,879.90"/>
    </edge>
    <edge id=":1693132977_13" function="internal">
        <lane id=":1693132977_13_0" index="0" disallow="tram rail_urban rail rail_electric ship" speed="13.89" length="10.33" shape="397.26,885.28 399.50,883.26 401.11,881.83 402.74,880.44 405.05,878.50"/>
    </edge>
    <edge id=":1693132977_14" function="internal">
        <lane id=":1693132977_14_0" index="0" disallow="tram rail_urban rail rail_electric ship" speed="13.89" length="5.46" shape="397.26,885.28 399.85,883.54 402.16,883.17"/>
    </edge>
    <edge id=":1693132977_15" function="internal">
        <lane id=":1693132977_15_0" index="0" disallow="tram rail_urban rail rail_electric ship" speed="13.89" length="2.41" shape="397.26,885.28 398.73,885.06 399.59,885.40"/>
    </edge>
    <edge id=":1693132977_18" function="internal">
        <lane id=":1693132977_18_0" index="0" speed="13.89" length="5.67" shape="402.16,883.17 402.26,883.16 404.51,884.13 406.58,886.46"/>
    </edge>
    <edge id=":1693132977_19" function="internal">
        <lane id=":1693132977_19_0" index="0" speed="13.89" length="2.41" shape="399.59,885.40 399.84,886.29 399.47,887.73"/>
    </edge>
    <edge id=":1693132995_0" function="internal">
        <lane id=":1693132995_0_0" index="0" disallow="tram rail_urban rail rail_electric ship" speed="13.89" length="4.82" shape="787.03,1546.07 786.90,1547.55 786.37,1548.31 785.45,1548.34 784.13,1547.65"/>
    </edge>
    <edge id=":1827463990_0" function="internal">
        <lane id=":1827463990_0_0" index="0" disallow="tram rail_urban rail rail_electric ship" speed="13.89" length="5.05" shape="298.19,970.19 294.27,973.37"/>
    </edge>
    <edge id=":1827463990_1" function="internal">
        <lane id=":1827463990_1_0" index="0" allow="bicycle" speed="9.72" length="3.21" width="1.00" shape="298.19,970.19 296.72,970.85 295.16,970.51"/>
    </edge>
    <edge id=":1827463990_2" function="internal">
        <lane id=":1827463990_2_0" index="0" disallow="tram rail_urban rail rail_electric ship" speed="13.89" length="2.41" shape="298.19,970.19 296.71,970.32 295.87,969.93"/>
    </edge>
    <edge id=":1827463990_9" function="internal">
        <lane id=":1827463990_9_0" index="0" speed="9.72" length="4.98" width="1.00" shape="295.16,970.51 293.52,969.19 291.81,966.88"/>
    </edge>
    <edge id=":1827463990_10" function="internal">
        <lane id=":1827463990_10_0" index="0" speed="13.89" length="2.41" shape="295.87,969.93 295.68,969.03 296.13,967.61"/>
    </edge>
    <edge id=":1827463990_3" function="internal">
        <lane id=":1827463990_3_0" index="0" disallow="tram rail_urban rail rail_electric ship" speed="9.72" length="4.21" shape="292.74,966.29 293.58,967.38 294.43,967.97 295.28,968.04 296.13,967.61"/>
    </edge>
    <edge id=":1827463990_4" function="internal">
        <lane id=":1827463990_4_0" index="0" disallow="tram rail_urban rail rail_electric ship" speed="9.72" length="7.73" shape="292.74,966.29 294.13,968.80 294.84,970.81 294.89,972.33 294.27,973.37"/>
    </edge>
    <edge id=":1827463990_5" function="internal">
        <lane id=":1827463990_5_0" index="0" allow="bicycle" speed="5.56" length="1.61" width="1.00" shape="292.74,966.29 292.73,966.79 292.57,967.05 292.26,967.08 291.81,966.88"/>
    </edge>
    <edge id=":1827463990_6" function="internal">
        <lane id=":1827463990_6_0" index="0" allow="bicycle" speed="9.72" length="4.32" width="1.00" shape="292.17,970.82 292.67,970.14 292.78,969.26 292.49,968.17 291.81,966.88"/>
    </edge>
    <edge id=":1827463990_7" function="internal">
        <lane id=":1827463990_7_0" index="0" disallow="tram rail_urban rail rail_electric ship" speed="13.89" length="5.09" shape="292.17,970.82 296.13,967.61"/>
    </edge>
    <edge id=":1827463990_8" function="internal">
        <lane id=":1827463990_8_0" index="0" disallow="tram rail_urban rail rail_electric ship" speed="13.89" length="2.41" shape="292.17,970.82 293.65,970.67 294.50,971.04"/>
    </edge>
    <edge id=":1827463990_11" function="internal">
        <lane id=":1827463990_11_0" index="0" speed="13.89" length="2.41" shape="294.50,971.04 294.70,971.94 294.27,973.37"/>
    </edge>
    <edge id=":1827464011_0" function="internal">
        <lane id=":1827464011_0_0" index="0" allow="bicycle" speed="5.56" length="1.61" width="1.00" shape="0.20,584.97 -0.28,584.86 -0.51,584.66 -0.48,584.35 -0.20,583.95"/>
    </edge>
    <edge id=":2126263239_0" function="internal">
        <lane id=":2126263239_0_0" index="0" allow="bicycle" speed="5.56" length="5.00" width="1.00" shape="242.97,885.65 240.40,881.37"/>
    </edge>
    <edge id=":2126263239_1" function="internal">
        <lane id=":2126263239_1_0" index="0" allow="bicycle pedestrian" speed="4.17" length="4.60" width="2.00" shape="242.97,885.65 242.56,884.57 242.68,883.60 243.32,882.74 244.49,881.99"/>
    </edge>
    <edge id=":2126263239_2" function="internal">
        <lane id=":2126263239_2_0" index="0" allow="bicycle" speed="5.56" length="1.61" width="1.00" shape="242.97,885.65 243.00,885.16 243.16,884.90 243.47,884.88 243.92,885.09"/>
    </edge>
    <edge id=":2126263239_3" function="internal">
        <lane id=":2126263239_3_0" index="0" allow="bicycle pedestrian" speed="4.17" length="3.76" width="2.00" shape="241.34,880.80 242.02,881.66 242.77,882.15 243.59,882.26 244.49,881.99"/>
    </edge>
    <edge id=":2126263239_4" function="internal">
        <lane id=":2126263239_4_0" index="0" allow="bicycle" speed="5.56" length="5.00" width="1.00" shape="241.34,880.80 243.92,885.09"/>
    </edge>
    <edge id=":2126263239_5" function="internal">
        <lane id=":2126263239_5_0" index="0" allow="bicycle" speed="5.56" length="1.61" width="1.00" shape="241.34,880.80 241.32,881.29 241.16,881.55 240.85,881.58 240.40,881.37"/>
    </edge>
    <edge id=":2126263257_0" function="internal">
        <lane id=":2126263257_0_0" index="0" allow="bicycle" speed="5.56" length="5.04" width="1.00" shape="282.19,951.48 279.57,947.18"/>
    </edge>
    <edge id=":2126263257_1" function="internal">
        <lane id=":2126263257_1_0" index="0" allow="bicycle pedestrian" speed="4.17" length="4.59" width="2.00" shape="282.19,951.48 281.76,950.42 281.85,949.44 282.47,948.56 283.61,947.78"/>
    </edge>
    <edge id=":2126263257_2" function="internal">
        <lane id=":2126263257_2_0" index="0" allow="bicycle" speed="5.56" length="1.61" width="1.00" shape="282.19,951.48 282.21,950.98 282.37,950.72 282.67,950.69 283.12,950.90"/>
    </edge>
    <edge id=":2126263257_3" function="internal">
        <lane id=":2126263257_3_0" index="0" allow="bicycle pedestrian" speed="4.17" length="3.73" width="2.00" shape="280.51,946.62 281.18,947.49 281.92,947.97 282.73,948.07 283.61,947.78"/>
    </edge>
    <edge id=":2126263257_4" function="internal">
        <lane id=":2126263257_4_0" index="0" allow="bicycle" speed="5.56" length="5.01" width="1.00" shape="280.51,946.62 283.12,950.90"/>
    </edge>
    <edge id=":2126263257_5" function="internal">
        <lane id=":2126263257_5_0" index="0" allow="bicycle" speed="5.56" length="1.61" width="1.00" shape="280.51,946.62 280.49,947.11 280.32,947.37 280.01,947.39 279.57,947.18"/>
    </edge>
    <edge id=":2126263276_0" function="internal">
        <lane id=":2126263276_0_0" index="0" allow="delivery bicycle pedestrian" speed="5.56" length="4.93" shape="316.36,854.25 316.22,849.32"/>
    </edge>
    <edge id=":2126263276_1" function="internal">
        <lane id=":2126263276_1_0" index="0" allow="delivery bicycle pedestrian" speed="5.56" length="2.41" shape="316.36,854.25 317.12,852.97 317.93,852.52"/>
    </edge>
    <edge id=":2126263276_6" function="internal">
        <lane id=":2126263276_6_0" index="0" speed="5.56" length="2.41" shape="317.93,852.52 318.77,852.89 319.66,854.08"/>
    </edge>
    <edge id=":2126263276_2" function="internal">
        <lane id=":2126263276_2_0" index="0" allow="delivery bicycle pedestrian" speed="5.56" length="3.11" shape="319.53,850.97 319.66,854.08"/>
    </edge>
    <edge id=":2126263276_3" function="internal">
        <lane id=":2126263276_3_0" index="0" allow="delivery bicycle pedestrian" speed="5.56" length="1.86" shape="319.53,850.97 318.08,851.80 317.89,851.80"/>
    </edge>
    <edge id=":2126263276_7" function="internal">
        <lane id=":2126263276_7_0" index="0" speed="5.56" length="3.54" shape="317.89,851.80 317.05,851.80 316.43,850.98 316.22,849.32"/>
    </edge>
    <edge id=":2126263276_4" function="internal">
        <lane id=":2126263276_4_0" index="0" allow="delivery bicycle pedestrian" speed="4.17" length="4.53" shape="313.14,851.91 314.49,851.69 315.46,851.18 316.03,850.39 316.22,849.32"/>
    </edge>
    <edge id=":2126263276_5" function="internal">
        <lane id=":2126263276_5_0" index="0" allow="delivery bicycle pedestrian" speed="4.17" length="7.46" shape="313.14,851.91 315.94,851.92 317.97,852.29 319.20,853.01 319.66,854.08"/>
    </edge>
    <edge id=":2126263282_0" function="internal">
        <lane id=":2126263282_0_0" index="0" allow="delivery bicycle pedestrian" speed="5.56" length="10.30" shape="324.46,887.68 321.65,887.41 319.60,886.31 318.30,884.38 317.76,881.61"/>
    </edge>
    <edge id=":2126263282_1" function="internal">
        <lane id=":2126263282_1_0" index="0" allow="delivery bicycle pedestrian" speed="5.56" length="2.69" shape="324.46,887.68 323.19,886.91 322.74,886.11 322.85,885.85"/>
    </edge>
    <edge id=":2126263282_6" function="internal">
        <lane id=":2126263282_6_0" index="0" speed="5.56" length="2.13" shape="322.85,885.85 323.11,885.26 324.31,884.38"/>
    </edge>
    <edge id=":2126263282_2" function="internal">
        <lane id=":2126263282_2_0" index="0" allow="delivery bicycle pedestrian" speed="5.56" length="5.00" shape="321.06,881.44 321.32,882.78 321.95,883.72 322.94,884.25 324.31,884.38"/>
    </edge>
    <edge id=":2126263282_3" function="internal">
        <lane id=":2126263282_3_0" index="0" allow="delivery bicycle pedestrian" speed="5.56" length="2.20" shape="321.06,881.44 320.30,882.72 319.68,883.07"/>
    </edge>
    <edge id=":2126263282_7" function="internal">
        <lane id=":2126263282_7_0" index="0" speed="5.56" length="2.62" shape="319.68,883.07 319.49,883.17 318.65,882.80 317.76,881.61"/>
    </edge>
    <edge id=":2126263282_4" function="internal">
        <lane id=":2126263282_4_0" index="0" allow="delivery bicycle pedestrian" speed="4.17" length="13.51" shape="317.10,894.94 317.64,894.05 317.93,891.53 317.97,887.38 317.76,881.61"/>
    </edge>
    <edge id=":2126263282_5" function="internal">
        <lane id=":2126263282_5_0" index="0" allow="delivery bicycle pedestrian" speed="4.17" length="13.52" shape="317.10,894.94 319.62,893.07 320.69,889.53 321.77,886.05 324.31,884.38"/>
    </edge>
    <edge id=":24965381_0" function="internal">
        <lane id=":24965381_0_0" index="0" disallow="tram rail_urban rail rail_electric ship" speed="13.89" length="4.82" shape="45.13,1175.82 43.65,1175.87 42.83,1175.44 42.69,1174.52 43.22,1173.13"/>
    </edge>
    <edge id=":24965384_0" function="internal">
        <lane id=":24965384_0_0" index="0" disallow="tram rail_urban rail rail_electric ship" speed="13.89" length="0.10" shape="76.80,80.57 76.80,80.55"/>
    </edge>
    <edge id=":24965384_1" function="internal">
        <lane id=":24965384_1_0" index="0" disallow="tram rail_urban rail rail_electric ship" speed="13.89" length="2.41" shape="76.80,80.57 77.13,79.12 77.76,78.44"/>
    </edge>
    <edge id=":24965384_4" function="internal">
        <lane id=":24965384_4_0" index="0" speed="13.89" length="2.41" shape="77.76,78.44 78.67,78.53 79.89,79.39"/>
    </edge>
    <edge id=":24965384_2" function="internal">
        <lane id=":24965384_2_0" index="0" disallow="tram rail_urban rail rail_electric ship" speed="13.89" length="0.10" shape="79.90,79.43 79.89,79.39"/>
    </edge>
    <edge id=":24965384_3" function="internal">
        <lane id=":24965384_3_0" index="0" disallow="tram rail_urban rail rail_electric ship" speed="13.89" length="2.41" shape="79.90,79.43 79.54,80.88 78.91,81.54"/>
    </edge>
    <edge id=":24965384_5" function="internal">
        <lane id=":24965384_5_0" index="0" speed="13.89" length="2.41" shape="78.91,81.54 77.99,81.44 76.80,80.55"/>
    </edge>
    <edge id=":288204511_0" function="internal">
        <lane id=":288204511_0_0" index="0" disallow="tram rail_urban rail rail_electric ship" speed="13.89" length="4.82" shape="47.95,0.56 48.30,-0.88 48.94,-1.55 49.86,-1.44 51.05,-0.56"/>
    </edge>
    <edge id=":288205973_0" function="internal">
        <lane id=":288205973_0_0" index="0" disallow="tram rail_urban rail rail_electric ship" speed="13.89" length="4.82" shape="416.88,460.24 417.00,458.76 417.52,458.00 418.44,457.95 419.76,458.63"/>
    </edge>
    <edge id=":288206042_0" function="internal">
        <lane id=":288206042_0_0" index="0" disallow="tram rail_urban rail rail_electric ship" speed="13.89" length="9.16" shape="562.65,790.20 554.02,793.28"/>
    </edge>
    <edge id=":288206042_1" function="internal">
        <lane id=":288206042_1_0" index="0" disallow="tram rail_urban rail rail_electric ship" speed="13.89" length="5.03" shape="562.65,790.20 559.96,790.65 557.71,790.13"/>
    </edge>
    <edge id=":288206042_2" function="internal">
        <lane id=":288206042_2_0" index="0" disallow="tram rail_urban rail rail_electric ship" speed="13.89" length="2.41" shape="562.65,790.20 561.22,789.79 560.58,789.13"/>
    </edge>
    <edge id=":288206042_9" function="internal">
        <lane id=":288206042_9_0" index="0" speed="13.89" length="5.12" shape="557.71,790.13 555.91,788.65 554.57,786.20"/>
    </edge>
    <edge id=":288206042_10" function="internal">
        <lane id=":288206042_10_0" index="0" speed="13.89" length="2.41" shape="560.58,789.13 560.72,788.22 561.65,787.05"/>
    </edge>
    <edge id=":288206042_3" function="internal">
        <lane id=":288206042_3_0" index="0" disallow="tram rail_urban rail rail_electric ship" speed="13.89" length="5.05" shape="557.65,785.02 558.32,786.25 559.21,787.00 560.32,787.27 561.65,787.05"/>
    </edge>
    <edge id=":288206042_4" function="internal">
        <lane id=":288206042_4_0" index="0" disallow="tram rail_urban rail rail_electric ship" speed="13.89" length="10.27" shape="557.65,785.02 558.27,787.76 557.88,790.05 556.46,791.89 554.02,793.28"/>
    </edge>
    <edge id=":288206042_5" function="internal">
        <lane id=":288206042_5_0" index="0" disallow="tram rail_urban rail rail_electric ship" speed="13.89" length="4.82" shape="557.65,785.02 557.32,786.47 556.70,787.15 555.78,787.06 554.57,786.20"/>
    </edge>
    <edge id=":288206042_6" function="internal">
        <lane id=":288206042_6_0" index="0" disallow="tram rail_urban rail rail_electric ship" speed="13.89" length="4.99" shape="552.81,790.22 553.99,789.54 554.68,788.64 554.87,787.53 554.57,786.20"/>
    </edge>
    <edge id=":288206042_7" function="internal">
        <lane id=":288206042_7_0" index="0" disallow="tram rail_urban rail rail_electric ship" speed="13.89" length="9.39" shape="552.81,790.22 561.65,787.05"/>
    </edge>
    <edge id=":288206042_8" function="internal">
        <lane id=":288206042_8_0" index="0" disallow="tram rail_urban rail rail_electric ship" speed="13.89" length="2.53" shape="552.81,790.22 554.26,790.53 554.95,791.14 554.94,791.26"/>
    </edge>
    <edge id=":288206042_11" function="internal">
        <lane id=":288206042_11_0" index="0" speed="13.89" length="2.29" shape="554.94,791.26 554.87,792.06 554.02,793.28"/>
    </edge>
    <edge id=":288206071_0" function="internal">
        <lane id=":288206071_0_0" index="0" disallow="tram rail_urban rail rail_electric ship" speed="13.89" length="4.82" shape="714.31,680.29 715.77,680.60 716.46,681.21 716.38,682.13 715.54,683.36"/>
    </edge>
    <edge id=":288206088_0" function="internal">
        <lane id=":288206088_0_0" index="0" disallow="tram rail_urban rail rail_electric ship" speed="13.89" length="5.60" shape="345.74,792.15 344.85,790.88 343.77,790.13 342.52,789.92 341.09,790.24"/>
    </edge>
    <edge id=":288206088_1" function="internal">
        <lane id=":288206088_1_0" index="0" disallow="tram rail_urban rail rail_electric ship" speed="13.89" length="10.12" shape="345.74,792.15 344.36,789.50 343.46,787.64 342.67,785.73 341.60,782.94"/>
    </edge>
    <edge id=":288206088_2" function="internal">
        <lane id=":288206088_2_0" index="0" disallow="tram rail_urban rail rail_electric ship" speed="13.89" length="10.64" shape="345.74,792.15 344.76,789.38 344.93,787.01 346.26,785.03 348.74,783.45"/>
    </edge>
    <edge id=":288206088_3" function="internal">
        <lane id=":288206088_3_0" index="0" disallow="tram rail_urban rail rail_electric ship" speed="13.89" length="4.82" shape="345.74,792.15 345.90,790.67 346.44,789.92 347.36,789.90 348.66,790.61"/>
    </edge>
    <edge id=":288206088_4" function="internal">
        <lane id=":288206088_4_0" index="0" disallow="tram rail_urban rail rail_electric ship" speed="13.89" length="5.09" shape="350.10,786.46 348.92,787.21 348.28,788.16 348.20,789.29 348.66,790.61"/>
    </edge>
    <edge id=":288206088_5" function="internal">
        <lane id=":288206088_5_0" index="0" disallow="tram rail_urban rail rail_electric ship" speed="13.89" length="9.78" shape="350.10,786.46 341.09,790.24"/>
    </edge>
    <edge id=":288206088_6" function="internal">
        <lane id=":288206088_6_0" index="0" disallow="tram rail_urban rail rail_electric ship" speed="13.89" length="5.51" shape="350.10,786.46 347.27,787.28 344.91,786.96 344.77,786.85"/>
    </edge>
    <edge id=":288206088_7" function="internal">
        <lane id=":288206088_7_0" index="0" disallow="tram rail_urban rail rail_electric ship" speed="13.89" length="2.51" shape="350.10,786.46 348.64,786.22 347.92,785.63 347.92,785.53"/>
    </edge>
    <edge id=":288206088_16" function="internal">
        <lane id=":288206088_16_0" index="0" speed="13.89" length="5.15" shape="344.77,786.85 343.02,785.52 341.60,782.94"/>
    </edge>
    <edge id=":288206088_17" function="internal">
        <lane id=":288206088_17_0" index="0" speed="13.89" length="2.30" shape="347.92,785.53 347.96,784.71 348.74,783.45"/>
    </edge>
    <edge id=":288206088_8" function="internal">
        <lane id=":288206088_8_0" index="0" disallow="tram rail_urban rail rail_electric ship" speed="13.89" length="5.08" shape="344.69,781.77 345.37,783.00 346.27,783.69 347.39,783.84 348.74,783.45"/>
    </edge>
    <edge id=":288206088_9" function="internal">
        <lane id=":288206088_9_0" index="0" disallow="tram rail_urban rail rail_electric ship" speed="13.89" length="9.69" shape="344.69,781.77 348.66,790.61"/>
    </edge>
    <edge id=":288206088_10" function="internal">
        <lane id=":288206088_10_0" index="0" disallow="tram rail_urban rail rail_electric ship" speed="13.89" length="10.48" shape="344.69,781.77 345.34,784.62 344.95,786.98 343.54,788.85 341.09,790.24"/>
    </edge>
    <edge id=":288206088_11" function="internal">
        <lane id=":288206088_11_0" index="0" disallow="tram rail_urban rail rail_electric ship" speed="13.89" length="4.82" shape="344.69,781.77 344.35,783.22 343.73,783.90 342.81,783.80 341.60,782.94"/>
    </edge>
    <edge id=":288206088_12" function="internal">
        <lane id=":288206088_12_0" index="0" disallow="tram rail_urban rail rail_electric ship" speed="13.89" length="5.19" shape="339.90,787.17 341.08,786.48 341.76,785.55 341.94,784.37 341.60,782.94"/>
    </edge>
    <edge id=":288206088_13" function="internal">
        <lane id=":288206088_13_0" index="0" disallow="tram rail_urban rail rail_electric ship" speed="13.89" length="9.59" shape="339.90,787.17 348.74,783.45"/>
    </edge>
    <edge id=":288206088_14" function="internal">
        <lane id=":288206088_14_0" index="0" disallow="tram rail_urban rail rail_electric ship" speed="13.89" length="5.18" shape="339.90,787.17 342.61,786.54 344.98,786.91"/>
    </edge>
    <edge id=":288206088_15" function="internal">
        <lane id=":288206088_15_0" index="0" disallow="tram rail_urban rail rail_electric ship" speed="13.89" length="2.41" shape="339.90,787.17 341.35,787.49 342.03,788.11"/>
    </edge>
    <edge id=":288206088_18" function="internal">
        <lane id=":288206088_18_0" index="0" speed="13.89" length="5.31" shape="344.98,786.91 347.00,788.27 348.66,790.61"/>
    </edge>
    <edge id=":288206088_19" function="internal">
        <lane id=":288206088_19_0" index="0" speed="13.89" length="2.41" shape="342.03,788.11 341.94,789.03 341.09,790.24"/>
    </edge>
    <edge id=":288206092_0" function="internal">
        <lane id=":288206092_0_0" index="0" disallow="tram rail_urban rail rail_electric ship" speed="13.89" length="5.06" shape="525.25,710.73 524.56,709.52 523.65,708.84 522.53,708.69 521.19,709.08"/>
    </edge>
    <edge id=":288206092_1" function="internal">