<?xml version="1.0" encoding="utf-8"?>
<additional>

</additional> 

<!-- <e1Detector id="0" lane="4i_0" pos="450" freq="30" file="cross1.out" friendlyPos="x"/> -->
<!-- <e2Detector id="1" lane="5i_0" pos="450" freq="30" file="cross2.out" friendlyPos="x"/> -->

